ALP-POS-477dc5b7-2
 OpenBabel07072620443D

 26 29  0  0  1  0  0  0  0  0999 V2000
  -20.0760   -5.3060  -26.6270 C   0  0  2  0  0  3  0  0  0  0  0  0
  -19.2360   -4.0460  -26.8750 C   0  0  0  0  0  2  0  0  0  0  0  0
  -18.2650   -3.8330  -25.7290 C   0  0  0  0  0  2  0  0  0  0  0  0
  -17.3530   -4.9590  -25.6410 N   0  0  0  0  0  0  0  0  0  0  0  0
  -17.9430   -6.2300  -25.6040 C   0  0  0  0  0  0  0  0  0  0  0  0
  -17.1730   -7.3190  -25.1690 C   0  0  0  0  0  3  0  0  0  0  0  0
  -17.7000   -8.6120  -25.1490 C   0  0  0  0  0  3  0  0  0  0  0  0
  -19.0000   -8.8280  -25.5880 C   0  0  0  0  0  0  0  0  0  0  0  0
  -19.6640  -10.4150  -25.5450 Cl  0  0  0  0  0  0  0  0  0  0  0  0
  -19.7670   -7.7670  -26.0650 C   0  0  0  0  0  3  0  0  0  0  0  0
  -19.2350   -6.4650  -26.1130 C   0  0  0  0  0  0  0  0  0  0  0  0
  -16.6260   -4.8470  -24.9380 H   0  0  0  0  0  0  0  0  0  0  0  0
  -20.8550   -5.6020  -27.9180 C   0  0  0  0  0  0  0  0  0  0  0  0
  -21.8000   -6.3840  -27.9550 O   0  0  0  0  0  0  0  0  0  0  0  0
  -20.3440   -4.9100  -29.0090 N   0  0  0  0  0  0  0  0  0  0  0  0
  -19.5670   -4.2960  -28.8230 H   0  0  0  0  0  0  0  0  0  0  0  0
  -20.7970   -4.9600  -30.3560 C   0  0  0  0  0  0  0  0  0  0  0  0
  -20.2860   -5.8610  -31.2930 C   0  0  0  0  0  3  0  0  0  0  0  0
  -21.8160   -4.0580  -30.7950 C   0  0  0  0  0  0  0  0  0  0  0  0
  -20.6850   -5.9430  -32.5840 N   0  0  0  0  0  0  0  0  0  0  0  0
  -22.4520   -3.0760  -29.9880 C   0  0  0  0  0  3  0  0  0  0  0  0
  -22.2410   -4.1330  -32.1440 C   0  0  0  0  0  0  0  0  0  0  0  0
  -21.6450   -5.0820  -32.9730 C   0  0  0  0  0  3  0  0  0  0  0  0
  -23.4440   -2.2270  -30.4910 C   0  0  0  0  0  3  0  0  0  0  0  0
  -23.2380   -3.2760  -32.6410 C   0  0  0  0  0  3  0  0  0  0  0  0
  -23.8370   -2.3270  -31.8180 C   0  0  0  0  0  3  0  0  0  0  0  0
  1 13  1  6  0  0  0
  1 11  1  0  0  0  0
  2  1  1  0  0  0  0
  2  3  1  0  0  0  0
  3  4  1  0  0  0  0
  4  5  1  0  0  0  0
  4 12  1  0  0  0  0
  5  6  1  0  0  0  0
  6  7  2  0  0  0  0
  8  9  1  0  0  0  0
  8  7  1  0  0  0  0
 10  8  2  0  0  0  0
 11 10  1  0  0  0  0
 11  5  2  0  0  0  0
 14 13  2  0  0  0  0
 15 16  1  0  0  0  0
 15 13  1  0  0  0  0
 17 15  1  0  0  0  0
 18 17  2  0  0  0  0
 19 17  1  0  0  0  0
 19 21  1  0  0  0  0
 20 18  1  0  0  0  0
 22 19  2  0  0  0  0
 23 20  2  0  0  0  0
 23 22  1  0  0  0  0
 24 21  2  0  0  0  0
 25 22  1  0  0  0  0
 25 26  2  0  0  0  0
 26 24  1  0  0  0  0
M  END
>  <MODEL>
1

>  <REMARK>
 VINA RESULT:    -7.559      0.000      0.000
 INTER + INTRA:          -8.877
 INTER:                  -8.443
 INTRA:                  -0.434
 UNBOUND:                -0.434
 SMILES O=C(Nc1cncc2ccccc12)C1CCNc2ccc(Cl)cc21
 SMILES IDX 14 1 15 2 16 3 17 4 18 5 19 6 20 7 21 8 22 9 23 10 24 11
 SMILES IDX 2 13 1 14 3 15 4 17 5 18 13 19 6 20 12 21 8 22 7 23 11 24
 SMILES IDX 9 25 10 26
 H PARENT 17 12 3 16

>  <TORSDO>
F 2

$$$$
ALP-POS-477dc5b7-5
 OpenBabel07072620443D

 27 31  0  0  1  0  0  0  0  0999 V2000
  -20.0610   -4.0160  -28.8520 O   0  0  0  0  0  0  0  0  0  0  0  0
  -20.8400   -4.9020  -28.4930 C   0  0  0  0  0  0  0  0  0  0  0  0
  -21.9250   -5.3170  -29.2850 N   0  0  0  0  0  0  0  0  0  0  0  0
  -23.1020   -5.9130  -28.6480 C   0  0  0  0  0  2  0  0  0  0  0  0
  -22.7340   -6.9790  -27.6380 C   0  0  0  0  0  2  0  0  0  0  0  0
  -21.8180   -6.3650  -26.5940 C   0  0  0  0  0  2  0  0  0  0  0  0
  -20.5480   -5.7300  -27.2050 C   0  0  2  0  0  0  0  0  0  0  0  0
  -19.9270   -4.7520  -26.1770 C   0  0  0  0  0  2  0  0  0  0  0  0
  -19.3900   -5.5020  -24.9720 C   0  0  0  0  0  2  0  0  0  0  0  0
  -18.3710   -6.4360  -25.3120 O   0  0  0  0  0  0  0  0  0  0  0  0
  -18.5140   -7.0990  -26.5000 C   0  0  0  0  0  0  0  0  0  0  0  0
  -17.5580   -8.0970  -26.7220 C   0  0  0  0  0  3  0  0  0  0  0  0
  -17.5690   -8.8390  -27.9010 C   0  0  0  0  0  3  0  0  0  0  0  0
  -18.5340   -8.5710  -28.8620 C   0  0  0  0  0  0  0  0  0  0  0  0
  -18.5630   -9.4820  -30.3230 Cl  0  0  0  0  0  0  0  0  0  0  0  0
  -19.4860   -7.5720  -28.6520 C   0  0  0  0  0  3  0  0  0  0  0  0
  -19.4970   -6.8180  -27.4620 C   0  0  0  0  0  0  0  0  0  0  0  0
  -22.2040   -4.6410  -30.5260 C   0  0  0  0  0  0  0  0  0  0  0  0
  -23.1020   -3.5710  -30.5760 C   0  0  0  0  0  3  0  0  0  0  0  0
  -21.6160   -5.0710  -31.7480 C   0  0  0  0  0  0  0  0  0  0  0  0
  -23.4960   -2.9490  -31.7100 N   0  0  0  0  0  0  0  0  0  0  0  0
  -20.6230   -6.0770  -31.8520 C   0  0  0  0  0  3  0  0  0  0  0  0
  -22.0100   -4.4280  -32.9440 C   0  0  0  0  0  0  0  0  0  0  0  0
  -22.9430   -3.3930  -32.8580 C   0  0  0  0  0  3  0  0  0  0  0  0
  -20.0810   -6.4530  -33.0840 C   0  0  0  0  0  3  0  0  0  0  0  0
  -21.4630   -4.8160  -34.1800 C   0  0  0  0  0  3  0  0  0  0  0  0
  -20.5070   -5.8280  -34.2490 C   0  0  0  0  0  3  0  0  0  0  0  0
  1  2  2  0  0  0  0
  2  7  1  0  0  0  0
  3  4  1  0  0  0  0
  3  2  1  0  0  0  0
  4  5  1  0  0  0  0
  5  6  1  0  0  0  0
  7  6  1  1  0  0  0
  7  8  1  0  0  0  0
  8  9  1  0  0  0  0
 10  9  1  0  0  0  0
 11 10  1  0  0  0  0
 12 11  1  0  0  0  0
 13 12  2  0  0  0  0
 14 16  2  0  0  0  0
 14 13  1  0  0  0  0
 15 14  1  0  0  0  0
 16 17  1  0  0  0  0
 17  7  1  0  0  0  0
 17 11  2  0  0  0  0
 18  3  1  0  0  0  0
 19 18  1  0  0  0  0
 20 18  2  0  0  0  0
 21 19  2  0  0  0  0
 22 20  1  0  0  0  0
 23 24  2  0  0  0  0
 23 20  1  0  0  0  0
 24 21  1  0  0  0  0
 25 22  2  0  0  0  0
 26 23  1  0  0  0  0
 27 26  2  0  0  0  0
 27 25  1  0  0  0  0
M  END
>  <MODEL>
1

>  <REMARK>
 VINA RESULT:    -7.818      0.000      0.000
 INTER + INTRA:          -9.120
 INTER:                  -8.276
 INTRA:                  -0.845
 UNBOUND:                -0.845
 SMILES O=C1N(c2cncc3ccccc23)CCCC12CCOc1ccc(Cl)cc12
 SMILES IDX 1 1 2 2 3 3 14 4 15 5 16 6 17 7 18 8 19 9 20 10 21 11 22 12
 SMILES IDX 23 13 24 14 25 15 26 16 27 17 4 18 5 19 13 20 6 21 12 22
 SMILES IDX 8 23 7 24 11 25 9 26 10 27
 H PARENT

>  <TORSDO>
F 1

$$$$
ALP-POS-696356e4-1
 OpenBabel07072620443D

 26 29  0  0  1  0  0  0  0  0999 V2000
  -20.7930   -3.7000  -28.2650 O   0  0  0  0  0  0  0  0  0  0  0  0
  -20.4680   -4.3930  -27.3060 C   0  0  0  0  0  0  0  0  0  0  0  0
  -21.3560   -4.9690  -26.4050 N   0  0  0  0  0  0  0  0  0  0  0  0
  -21.0330   -5.8310  -25.9800 H   0  0  0  0  0  0  0  0  0  0  0  0
  -19.0030   -4.7260  -26.9930 C   0  0  1  0  0  3  0  0  0  0  0  0
  -18.6810   -4.2750  -25.5650 C   0  0  0  0  0  2  0  0  0  0  0  0
  -18.6680   -6.1970  -27.1600 C   0  0  0  0  0  0  0  0  0  0  0  0
  -17.3070   -4.7880  -25.1850 C   0  0  0  0  0  2  0  0  0  0  0  0
  -19.1420   -6.9440  -28.2530 C   0  0  0  0  0  3  0  0  0  0  0  0
  -17.8250   -6.8350  -26.2360 C   0  0  0  0  0  0  0  0  0  0  0  0
  -17.2700   -6.2140  -25.1500 O   0  0  0  0  0  0  0  0  0  0  0  0
  -18.8190   -8.2970  -28.3840 C   0  0  0  0  0  0  0  0  0  0  0  0
  -17.5160   -8.1920  -26.3670 C   0  0  0  0  0  3  0  0  0  0  0  0
  -18.0130   -8.9260  -27.4420 C   0  0  0  0  0  3  0  0  0  0  0  0
  -19.4210   -9.1890  -29.7270 Cl  0  0  0  0  0  0  0  0  0  0  0  0
  -22.7650   -4.7840  -26.4170 C   0  0  0  0  0  0  0  0  0  0  0  0
  -23.4710   -5.4430  -27.4280 C   0  0  0  0  0  3  0  0  0  0  0  0
  -23.5100   -4.0310  -25.4690 C   0  0  0  0  0  0  0  0  0  0  0  0
  -24.8020   -5.3610  -27.6240 N   0  0  0  0  0  0  0  0  0  0  0  0
  -22.9910   -3.4280  -24.2960 C   0  0  0  0  0  3  0  0  0  0  0  0
  -24.9120   -3.9190  -25.6690 C   0  0  0  0  0  0  0  0  0  0  0  0
  -25.4820   -4.5860  -26.7540 C   0  0  0  0  0  3  0  0  0  0  0  0
  -23.8030   -2.7060  -23.4250 C   0  0  0  0  0  0  0  0  0  0  0  0
  -25.7160   -3.1780  -24.7820 C   0  0  0  0  0  3  0  0  0  0  0  0
  -25.1590   -2.5660  -23.6630 C   0  0  0  0  0  3  0  0  0  0  0  0
  -23.2670   -2.1490  -22.3320 F   0  0  0  0  0  0  0  0  0  0  0  0
  1  2  2  0  0  0  0
  2  3  1  0  0  0  0
  3  4  1  0  0  0  0
  5  2  1  1  0  0  0
  5  6  1  0  0  0  0
  6  8  1  0  0  0  0
  7  5  1  0  0  0  0
  7 10  1  0  0  0  0
  8 11  1  0  0  0  0
  9  7  2  0  0  0  0
 10 11  1  0  0  0  0
 12  9  1  0  0  0  0
 12 14  2  0  0  0  0
 13 10  2  0  0  0  0
 14 13  1  0  0  0  0
 15 12  1  0  0  0  0
 16  3  1  0  0  0  0
 16 18  1  0  0  0  0
 17 16  2  0  0  0  0
 18 20  1  0  0  0  0
 19 17  1  0  0  0  0
 19 22  2  0  0  0  0
 20 23  2  0  0  0  0
 21 18  2  0  0  0  0
 21 24  1  0  0  0  0
 22 21  1  0  0  0  0
 23 26  1  0  0  0  0
 24 25  2  0  0  0  0
 25 23  1  0  0  0  0
M  END
>  <MODEL>
1

>  <REMARK>
 VINA RESULT:    -7.587      0.000      0.000
 INTER + INTRA:          -9.094
 INTER:                  -8.474
 INTRA:                  -0.620
 UNBOUND:                -0.620
 SMILES O=C(Nc1cncc2ccc(F)cc12)C1CCOc2ccc(Cl)cc21
 SMILES IDX 1 1 2 2 3 3 15 5 16 6 25 7 17 8 24 9 19 10 18 11 22 12 20 13
 SMILES IDX 21 14 23 15 4 16 5 17 14 18 6 19 13 20 8 21 7 22 11 23 9 24
 SMILES IDX 10 25 12 26
 H PARENT 3 4

>  <TORSDO>
F 2

$$$$
ALP-POS-fe871b40-11
 OpenBabel07072620443D

 28 31  0  0  1  0  0  0  0  0999 V2000
  -20.1040   -5.3590  -26.6260 C   0  0  1  0  0  0  0  0  0  0  0  0
  -19.2090   -4.1320  -26.9090 C   0  0  0  0  0  2  0  0  0  0  0  0
  -18.2880   -3.9050  -25.7240 C   0  0  0  0  0  2  0  0  0  0  0  0
  -17.3650   -4.9860  -25.5840 O   0  0  0  0  0  0  0  0  0  0  0  0
  -17.9340   -6.2290  -25.6020 C   0  0  0  0  0  0  0  0  0  0  0  0
  -17.1170   -7.2630  -25.1420 C   0  0  0  0  0  3  0  0  0  0  0  0
  -17.5840   -8.5710  -25.1450 C   0  0  0  0  0  0  0  0  0  0  0  0
  -16.7800   -9.5460  -24.6980 F   0  0  0  0  0  0  0  0  0  0  0  0
  -18.8610   -8.8610  -25.6130 C   0  0  0  0  0  0  0  0  0  0  0  0
  -19.4470  -10.4780  -25.6310 Cl  0  0  0  0  0  0  0  0  0  0  0  0
  -19.6770   -7.8300  -26.0860 C   0  0  0  0  0  3  0  0  0  0  0  0
  -19.2240   -6.4940  -26.0900 C   0  0  0  0  0  0  0  0  0  0  0  0
  -21.0020   -4.8970  -25.6080 O   0  0  0  0  0  0  0  0  0  0  0  0
  -22.2650   -4.4050  -26.0250 C   0  0  0  0  0  1  0  0  0  0  0  0
  -20.7710   -5.7160  -28.0120 C   0  0  0  0  0  0  0  0  0  0  0  0
  -21.5600   -6.6520  -28.1220 O   0  0  0  0  0  0  0  0  0  0  0  0
  -20.4000   -4.8730  -29.0550 N   0  0  0  0  0  0  0  0  0  0  0  0
  -19.7260   -4.1560  -28.8300 H   0  0  0  0  0  0  0  0  0  0  0  0
  -20.8270   -4.9210  -30.4100 C   0  0  0  0  0  0  0  0  0  0  0  0
  -20.2900   -5.8120  -31.3420 C   0  0  0  0  0  3  0  0  0  0  0  0
  -21.8520   -4.0330  -30.8580 C   0  0  0  0  0  0  0  0  0  0  0  0
  -20.6700   -5.8940  -32.6380 N   0  0  0  0  0  0  0  0  0  0  0  0
  -22.5090   -3.0590  -30.0560 C   0  0  0  0  0  3  0  0  0  0  0  0
  -22.2590   -4.1110  -32.2130 C   0  0  0  0  0  0  0  0  0  0  0  0
  -21.6380   -5.0470  -33.0360 C   0  0  0  0  0  3  0  0  0  0  0  0
  -23.5050   -2.2220  -30.5710 C   0  0  0  0  0  3  0  0  0  0  0  0
  -23.2620   -3.2660  -32.7200 C   0  0  0  0  0  3  0  0  0  0  0  0
  -23.8830   -2.3250  -31.9030 C   0  0  0  0  0  3  0  0  0  0  0  0
  1 15  1  6  0  0  0
  1 12  1  0  0  0  0
  1 13  1  0  0  0  0
  2  1  1  0  0  0  0
  2  3  1  0  0  0  0
  3  4  1  0  0  0  0
  5  4  1  0  0  0  0
  5  6  1  0  0  0  0
  7  6  2  0  0  0  0
  7  8  1  0  0  0  0
  9  7  1  0  0  0  0
 10  9  1  0  0  0  0
 11  9  2  0  0  0  0
 12 11  1  0  0  0  0
 12  5  2  0  0  0  0
 14 13  1  0  0  0  0
 16 15  2  0  0  0  0
 17 18  1  0  0  0  0
 17 15  1  0  0  0  0
 19 17  1  0  0  0  0
 20 19  2  0  0  0  0
 21 19  1  0  0  0  0
 21 23  1  0  0  0  0
 22 20  1  0  0  0  0
 24 21  2  0  0  0  0
 25 22  2  0  0  0  0
 25 24  1  0  0  0  0
 26 23  2  0  0  0  0
 27 24  1  0  0  0  0
 27 28  2  0  0  0  0
 28 26  1  0  0  0  0
M  END
>  <MODEL>
1

>  <REMARK>
 VINA RESULT:    -7.761      0.000      0.000
 INTER + INTRA:          -9.466
 INTER:                  -9.122
 INTRA:                  -0.344
 UNBOUND:                -0.344
 SMILES COC1(C(=O)Nc2cncc3ccccc23)CCOc2cc(F)c(Cl)cc21
 SMILES IDX 3 1 17 2 18 3 19 4 20 5 21 6 22 7 23 8 24 9 25 10 26 11
 SMILES IDX 27 12 2 13 1 14 4 15 5 16 6 17 7 19 8 20 16 21 9 22 15 23
 SMILES IDX 11 24 10 25 14 26 12 27 13 28
 H PARENT 6 18

>  <TORSDO>
F 3

$$$$
ALP-UNI-3735e77e-4
 OpenBabel07072620443D

 27 30  0  0  1  0  0  0  0  0999 V2000
  -19.4850   -6.6270  -34.6030 C   0  0  2  0  0  3  0  0  0  0  0  0
  -20.0850   -6.5530  -36.0150 C   0  0  0  0  0  2  0  0  0  0  0  0
  -20.0700   -7.9180  -36.6720 C   0  0  0  0  0  2  0  0  0  0  0  0
  -20.8770   -8.8390  -35.8800 N   0  0  0  0  0  0  0  0  0  0  0  0
  -20.4630   -8.9740  -34.5440 C   0  0  0  0  0  0  0  0  0  0  0  0
  -20.8290  -10.1190  -33.8260 C   0  0  0  0  0  3  0  0  0  0  0  0
  -20.4710  -10.2710  -32.4830 C   0  0  0  0  0  0  0  0  0  0  0  0
  -20.9440  -11.7310  -31.6860 Cl  0  0  0  0  0  0  0  0  0  0  0  0
  -19.7570   -9.2620  -31.8360 C   0  0  0  0  0  0  0  0  0  0  0  0
  -19.2680   -9.3820  -30.1840 Cl  0  0  0  0  0  0  0  0  0  0  0  0
  -19.4300   -8.0940  -32.5310 C   0  0  0  0  0  3  0  0  0  0  0  0
  -19.8100   -7.9260  -33.8750 C   0  0  0  0  0  0  0  0  0  0  0  0
  -20.9920   -9.7440  -36.3360 H   0  0  0  0  0  0  0  0  0  0  0  0
  -19.9320   -5.3880  -33.8180 C   0  0  0  0  0  0  0  0  0  0  0  0
  -19.2030   -4.4030  -33.7500 O   0  0  0  0  0  0  0  0  0  0  0  0
  -21.1900   -5.5110  -33.2530 N   0  0  0  0  0  0  0  0  0  0  0  0
  -21.6420   -6.4070  -33.3860 H   0  0  0  0  0  0  0  0  0  0  0  0
  -21.8970   -4.5540  -32.4800 C   0  0  0  0  0  0  0  0  0  0  0  0
  -22.8750   -3.7200  -33.0260 C   0  0  0  0  0  3  0  0  0  0  0  0
  -21.6170   -4.4230  -31.0850 C   0  0  0  0  0  0  0  0  0  0  0  0
  -23.5780   -2.7960  -32.3290 N   0  0  0  0  0  0  0  0  0  0  0  0
  -20.6560   -5.1830  -30.3660 C   0  0  0  0  0  3  0  0  0  0  0  0
  -22.3450   -3.4600  -30.3470 C   0  0  0  0  0  0  0  0  0  0  0  0
  -23.2960   -2.6920  -31.0150 C   0  0  0  0  0  3  0  0  0  0  0  0
  -20.4370   -4.9950  -28.9960 C   0  0  0  0  0  3  0  0  0  0  0  0
  -22.1170   -3.2800  -28.9700 C   0  0  0  0  0  3  0  0  0  0  0  0
  -21.1680   -4.0440  -28.2990 C   0  0  0  0  0  3  0  0  0  0  0  0
  1 12  1  0  0  0  0
  1 14  1  1  0  0  0
  2  1  1  0  0  0  0
  3  2  1  0  0  0  0
  3  4  1  0  0  0  0
  4  5  1  0  0  0  0
  5 12  2  0  0  0  0
  5  6  1  0  0  0  0
  6  7  2  0  0  0  0
  7  9  1  0  0  0  0
  7  8  1  0  0  0  0
  9 10  1  0  0  0  0
 11  9  2  0  0  0  0
 12 11  1  0  0  0  0
 13  4  1  0  0  0  0
 14 15  2  0  0  0  0
 14 16  1  0  0  0  0
 16 18  1  0  0  0  0
 17 16  1  0  0  0  0
 18 20  1  0  0  0  0
 19 18  2  0  0  0  0
 19 21  1  0  0  0  0
 20 22  2  0  0  0  0
 20 23  1  0  0  0  0
 21 24  2  0  0  0  0
 22 25  1  0  0  0  0
 23 26  2  0  0  0  0
 24 23  1  0  0  0  0
 25 27  2  0  0  0  0
 26 27  1  0  0  0  0
M  END
>  <MODEL>
1

>  <REMARK>
 VINA RESULT:    -7.491      0.000      0.000
 INTER + INTRA:          -9.114
 INTER:                  -8.367
 INTRA:                  -0.747
 UNBOUND:                -0.747
 SMILES O=C(Nc1cncc2ccccc12)C1CCNc2cc(Cl)c(Cl)cc21
 SMILES IDX 14 1 15 2 16 3 17 4 18 5 19 6 20 7 21 8 22 9 23 10 24 11
 SMILES IDX 25 12 2 14 1 15 3 16 4 18 5 19 13 20 6 21 12 22 8 23 7 24
 SMILES IDX 11 25 9 26 10 27
 H PARENT 17 13 3 17

>  <TORSDO>
F 2

$$$$
BRU-CON-c4e3408a-1
 OpenBabel07072620443D

 22 24  0  0  1  0  0  0  0  0999 V2000
  -20.2130   -4.6450  -27.8980 N   0  0  0  0  0  0  0  0  0  0  0  0
  -20.6400   -4.8160  -26.5870 C   0  0  0  0  0  0  0  0  0  0  0  0
  -21.8050   -4.7730  -26.2100 O   0  0  0  0  0  0  0  0  0  0  0  0
  -19.2170   -4.7050  -28.0630 H   0  0  0  0  0  0  0  0  0  0  0  0
  -21.0170   -4.3810  -29.0330 C   0  0  0  0  0  0  0  0  0  0  0  0
  -21.0260   -5.3050  -30.0980 C   0  0  0  0  0  0  0  0  0  0  0  0
  -21.8250   -5.0390  -31.2190 C   0  0  0  0  0  3  0  0  0  0  0  0
  -22.5820   -3.8810  -31.2510 C   0  0  0  0  0  3  0  0  0  0  0  0
  -21.8200   -3.2470  -29.1720 C   0  0  0  0  0  3  0  0  0  0  0  0
  -22.5980   -2.9800  -30.2530 N   0  0  0  0  0  0  0  0  0  0  0  0
  -20.2100   -6.5690  -30.0830 C   0  0  0  0  0  1  0  0  0  0  0  0
  -19.4750   -5.1110  -25.6310 C   0  0  2  0  0  3  0  0  0  0  0  0
  -18.3370   -4.1420  -25.9630 C   0  0  0  0  0  2  0  0  0  0  0  0
  -18.9870   -6.5460  -25.6480 C   0  0  0  0  0  0  0  0  0  0  0  0
  -17.0750   -4.5830  -25.2450 C   0  0  0  0  0  2  0  0  0  0  0  0
  -19.8940   -7.6190  -25.5870 C   0  0  0  0  0  3  0  0  0  0  0  0
  -17.6160   -6.8290  -25.6720 C   0  0  0  0  0  0  0  0  0  0  0  0
  -16.6420   -5.8670  -25.6900 O   0  0  0  0  0  0  0  0  0  0  0  0
  -19.4310   -8.9370  -25.6000 C   0  0  0  0  0  0  0  0  0  0  0  0
  -17.1600   -8.1480  -25.7020 C   0  0  0  0  0  3  0  0  0  0  0  0
  -18.0680   -9.2060  -25.6640 C   0  0  0  0  0  3  0  0  0  0  0  0
  -20.5560  -10.2370  -25.5320 Cl  0  0  0  0  0  0  0  0  0  0  0  0
  1  2  1  0  0  0  0
  2  3  2  0  0  0  0
  4  1  1  0  0  0  0
  5  1  1  0  0  0  0
  6 11  1  0  0  0  0
  6  5  2  0  0  0  0
  7  6  1  0  0  0  0
  8  7  2  0  0  0  0
  8 10  1  0  0  0  0
  9  5  1  0  0  0  0
 10  9  2  0  0  0  0
 12  2  1  6  0  0  0
 13 12  1  0  0  0  0
 13 15  1  0  0  0  0
 14 12  1  0  0  0  0
 14 16  1  0  0  0  0
 17 14  2  0  0  0  0
 18 17  1  0  0  0  0
 18 15  1  0  0  0  0
 19 16  2  0  0  0  0
 19 22  1  0  0  0  0
 20 17  1  0  0  0  0
 20 21  2  0  0  0  0
 21 19  1  0  0  0  0
M  END
>  <MODEL>
1

>  <REMARK>
 VINA RESULT:    -6.515      0.000      0.000
 INTER + INTRA:          -7.864
 INTER:                  -7.277
 INTRA:                  -0.586
 UNBOUND:                -0.586
 SMILES Cc1ccncc1NC(=O)C1CCOc2ccc(Cl)cc21
 SMILES IDX 8 1 9 2 10 3 7 5 2 6 3 7 4 8 6 9 5 10 1 11 11 12 12 13 21 14
 SMILES IDX 13 15 20 16 15 17 14 18 18 19 16 20 17 21 19 22
 H PARENT 8 4

>  <TORSDO>
F 2

$$$$
EDG-MED-5d232de5-1
 OpenBabel07072620443D

 26 29  0  0  1  0  0  0  0  0999 V2000
  -18.3120   -7.9800  -29.3030 O   0  0  0  0  0  0  0  0  0  0  0  0
  -19.3440   -7.3360  -29.4510 C   0  0  0  0  0  0  0  0  0  0  0  0
  -20.1490   -7.3560  -30.5840 N   0  0  0  0  0  0  0  0  0  0  0  0
  -20.9690   -6.7710  -30.5580 H   0  0  0  0  0  0  0  0  0  0  0  0
  -19.8720   -6.3690  -28.3810 C   0  0  2  0  0  3  0  0  0  0  0  0
  -20.3100   -5.0810  -29.0840 C   0  0  0  0  0  2  0  0  0  0  0  0
  -18.8960   -6.0690  -27.2620 C   0  0  0  0  0  0  0  0  0  0  0  0
  -20.5600   -4.0010  -28.0500 C   0  0  0  0  0  2  0  0  0  0  0  0
  -18.1960   -7.1020  -26.6140 C   0  0  0  0  0  3  0  0  0  0  0  0
  -18.7120   -4.7540  -26.8130 C   0  0  0  0  0  0  0  0  0  0  0  0
  -19.3690   -3.6730  -27.3370 O   0  0  0  0  0  0  0  0  0  0  0  0
  -17.3010   -6.8130  -25.5820 C   0  0  0  0  0  0  0  0  0  0  0  0
  -17.8020   -4.4680  -25.7920 C   0  0  0  0  0  3  0  0  0  0  0  0
  -17.0960   -5.4990  -25.1730 C   0  0  0  0  0  3  0  0  0  0  0  0
  -16.4480   -8.0920  -24.8080 Cl  0  0  0  0  0  0  0  0  0  0  0  0
  -19.9520   -8.1170  -31.7700 C   0  0  0  0  0  0  0  0  0  0  0  0
  -19.6230   -9.4750  -31.7520 C   0  0  0  0  0  3  0  0  0  0  0  0
  -20.0890   -7.4910  -33.0460 C   0  0  0  0  0  0  0  0  0  0  0  0
  -19.4270  -10.2350  -32.8550 N   0  0  0  0  0  0  0  0  0  0  0  0
  -20.4170   -6.1260  -33.2560 C   0  0  0  0  0  3  0  0  0  0  0  0
  -19.8860   -8.2780  -34.2090 C   0  0  0  0  0  0  0  0  0  0  0  0
  -19.5620   -9.6230  -34.0450 C   0  0  0  0  0  3  0  0  0  0  0  0
  -20.5310   -5.5950  -34.5400 C   0  0  0  0  0  0  0  0  0  0  0  0
  -20.0060   -7.7210  -35.4970 C   0  0  0  0  0  3  0  0  0  0  0  0
  -20.3290   -6.3790  -35.6610 C   0  0  0  0  0  3  0  0  0  0  0  0
  -20.8420   -4.3000  -34.6860 F   0  0  0  0  0  0  0  0  0  0  0  0
  2  1  2  0  0  0  0
  3  4  1  0  0  0  0
  3  2  1  0  0  0  0
  5  2  1  6  0  0  0
  5  7  1  0  0  0  0
  6  5  1  0  0  0  0
  6  8  1  0  0  0  0
  7 10  2  0  0  0  0
  7  9  1  0  0  0  0
  8 11  1  0  0  0  0
  9 12  2  0  0  0  0
 10 13  1  0  0  0  0
 11 10  1  0  0  0  0
 12 14  1  0  0  0  0
 12 15  1  0  0  0  0
 13 14  2  0  0  0  0
 16 17  1  0  0  0  0
 16  3  1  0  0  0  0
 18 16  2  0  0  0  0
 19 17  2  0  0  0  0
 20 18  1  0  0  0  0
 21 22  2  0  0  0  0
 21 18  1  0  0  0  0
 22 19  1  0  0  0  0
 23 20  2  0  0  0  0
 24 21  1  0  0  0  0
 25 24  2  0  0  0  0
 25 23  1  0  0  0  0
 26 23  1  0  0  0  0
M  END
>  <MODEL>
1

>  <REMARK>
 VINA RESULT:    -8.252      0.000      0.000
 INTER + INTRA:          -9.160
 INTER:                  -9.216
 INTRA:                   0.057
 UNBOUND:                 0.057
 SMILES O=C(Nc1cncc2ccc(F)cc12)[C@@H]1CCOc2ccc(Cl)cc21
 SMILES IDX 1 1 2 2 3 3 15 5 16 6 25 7 17 8 24 9 19 10 18 11 22 12 20 13
 SMILES IDX 21 14 23 15 4 16 5 17 14 18 6 19 13 20 8 21 7 22 11 23 9 24
 SMILES IDX 10 25 12 26
 H PARENT 3 4

>  <TORSDO>
F 2

$$$$
EDG-MED-5d232de5-5
 OpenBabel07072620443D

 26 29  0  0  1  0  0  0  0  0999 V2000
  -16.2330   -8.7090  -24.6390 C   0  0  0  0  0  1  0  0  0  0  0  0
  -17.1930   -7.9160  -25.4020 N   0  0  0  0  0  0  0  0  0  0  0  0
  -17.1550   -6.4760  -25.1720 C   0  0  0  0  0  2  0  0  0  0  0  0
  -18.4640   -5.8500  -25.6060 C   0  0  0  0  0  2  0  0  0  0  0  0
  -18.6620   -6.0620  -27.1060 C   0  0  1  0  0  3  0  0  0  0  0  0
  -18.3080   -7.4780  -27.5390 C   0  0  0  0  0  0  0  0  0  0  0  0
  -18.6540   -7.9020  -28.8410 C   0  0  0  0  0  3  0  0  0  0  0  0
  -18.3400   -9.1830  -29.2770 C   0  0  0  0  0  0  0  0  0  0  0  0
  -18.7780   -9.6850  -30.8630 Cl  0  0  0  0  0  0  0  0  0  0  0  0
  -17.6730  -10.0570  -28.4340 C   0  0  0  0  0  3  0  0  0  0  0  0
  -17.3040   -9.6350  -27.1520 C   0  0  0  0  0  3  0  0  0  0  0  0
  -17.5810   -8.3380  -26.6810 C   0  0  0  0  0  0  0  0  0  0  0  0
  -20.0960   -5.6270  -27.4440 C   0  0  0  0  0  0  0  0  0  0  0  0
  -21.0650   -5.9650  -26.7750 O   0  0  0  0  0  0  0  0  0  0  0  0
  -20.1420   -4.7970  -28.5600 N   0  0  0  0  0  0  0  0  0  0  0  0
  -19.2610   -4.6110  -29.0130 H   0  0  0  0  0  0  0  0  0  0  0  0
  -21.2890   -4.1900  -29.1420 C   0  0  0  0  0  0  0  0  0  0  0  0
  -22.2360   -3.4890  -28.3910 C   0  0  0  0  0  3  0  0  0  0  0  0
  -21.5020   -4.2840  -30.5520 C   0  0  0  0  0  0  0  0  0  0  0  0
  -23.3390   -2.8930  -28.9020 N   0  0  0  0  0  0  0  0  0  0  0  0
  -20.6510   -4.9560  -31.4710 C   0  0  0  0  0  3  0  0  0  0  0  0
  -22.6540   -3.6650  -31.0970 C   0  0  0  0  0  0  0  0  0  0  0  0
  -23.5170   -2.9970  -30.2320 C   0  0  0  0  0  3  0  0  0  0  0  0
  -20.9280   -5.0050  -32.8420 C   0  0  0  0  0  3  0  0  0  0  0  0
  -22.9230   -3.7200  -32.4770 C   0  0  0  0  0  3  0  0  0  0  0  0
  -22.0630   -4.3870  -33.3440 C   0  0  0  0  0  3  0  0  0  0  0  0
  2  3  1  0  0  0  0
  2  1  1  0  0  0  0
  4  3  1  0  0  0  0
  5 13  1  1  0  0  0
  5  4  1  0  0  0  0
  6  5  1  0  0  0  0
  6 12  1  0  0  0  0
  7  6  2  0  0  0  0
  8  7  1  0  0  0  0
  8 10  2  0  0  0  0
  9  8  1  0  0  0  0
 10 11  1  0  0  0  0
 11 12  2  0  0  0  0
 12  2  1  0  0  0  0
 13 14  2  0  0  0  0
 15 13  1  0  0  0  0
 16 15  1  0  0  0  0
 17 15  1  0  0  0  0
 17 18  1  0  0  0  0
 19 17  2  0  0  0  0
 20 18  2  0  0  0  0
 21 19  1  0  0  0  0
 22 19  1  0  0  0  0
 22 23  2  0  0  0  0
 23 20  1  0  0  0  0
 24 21  2  0  0  0  0
 25 22  1  0  0  0  0
 26 24  1  0  0  0  0
 26 25  2  0  0  0  0
M  END
>  <MODEL>
1

>  <REMARK>
 VINA RESULT:    -7.484      0.000      0.000
 INTER + INTRA:          -8.805
 INTER:                  -8.359
 INTRA:                  -0.446
 UNBOUND:                -0.446
 SMILES CN1CC[C@H](C(=O)Nc2cncc3ccccc23)c2cc(Cl)ccc21
 SMILES IDX 1 1 2 2 3 3 4 4 5 5 19 6 20 7 21 8 22 9 23 10 24 11 25 12
 SMILES IDX 6 13 7 14 8 15 9 17 10 18 18 19 11 20 17 21 13 22 12 23
 SMILES IDX 16 24 14 25 15 26
 H PARENT 8 16

>  <TORSDO>
F 2

$$$$
EDG-MED-5d232de5-6
 OpenBabel07072620443D

 26 29  0  0  1  0  0  0  0  0999 V2000
  -20.8720  -10.2630  -36.6230 C   0  0  0  0  0  1  0  0  0  0  0  0
  -20.5850   -9.0410  -35.8750 N   0  0  0  0  0  0  0  0  0  0  0  0
  -19.9080   -7.9840  -36.6210 C   0  0  0  0  0  2  0  0  0  0  0  0
  -20.1140   -6.6540  -35.9270 C   0  0  0  0  0  2  0  0  0  0  0  0
  -19.4870   -6.6990  -34.5340 C   0  0  2  0  0  3  0  0  0  0  0  0
  -19.7940   -7.9990  -33.8050 C   0  0  0  0  0  0  0  0  0  0  0  0
  -19.4870   -8.1020  -32.4300 C   0  0  0  0  0  3  0  0  0  0  0  0
  -19.7440   -9.2760  -31.7320 C   0  0  0  0  0  0  0  0  0  0  0  0
  -19.3700   -9.3810  -30.0560 Cl  0  0  0  0  0  0  0  0  0  0  0  0
  -20.2990  -10.3620  -32.3860 C   0  0  0  0  0  3  0  0  0  0  0  0
  -20.5820  -10.2770  -33.7540 C   0  0  0  0  0  3  0  0  0  0  0  0
  -20.3150   -9.1160  -34.5030 C   0  0  0  0  0  0  0  0  0  0  0  0
  -19.9270   -5.4270  -33.7920 C   0  0  0  0  0  0  0  0  0  0  0  0
  -19.2230   -4.4270  -33.7200 O   0  0  0  0  0  0  0  0  0  0  0  0
  -21.1790   -5.5710  -33.2060 N   0  0  0  0  0  0  0  0  0  0  0  0
  -21.6430   -6.4530  -33.3570 H   0  0  0  0  0  0  0  0  0  0  0  0
  -21.8860   -4.6140  -32.4260 C   0  0  0  0  0  0  0  0  0  0  0  0
  -22.8660   -3.7770  -32.9630 C   0  0  0  0  0  3  0  0  0  0  0  0
  -21.5960   -4.4830  -31.0320 C   0  0  0  0  0  0  0  0  0  0  0  0
  -23.5600   -2.8510  -32.2600 N   0  0  0  0  0  0  0  0  0  0  0  0
  -20.6360   -5.2480  -30.3140 C   0  0  0  0  0  3  0  0  0  0  0  0
  -22.3170   -3.5190  -30.2870 C   0  0  0  0  0  0  0  0  0  0  0  0
  -23.2700   -2.7470  -30.9490 C   0  0  0  0  0  3  0  0  0  0  0  0
  -20.4100   -5.0610  -28.9470 C   0  0  0  0  0  3  0  0  0  0  0  0
  -22.0810   -3.3390  -28.9120 C   0  0  0  0  0  3  0  0  0  0  0  0
  -21.1320   -4.1060  -28.2450 C   0  0  0  0  0  3  0  0  0  0  0  0
  1  2  1  0  0  0  0
  2 12  1  0  0  0  0
  3  4  1  0  0  0  0
  3  2  1  0  0  0  0
  4  5  1  0  0  0  0
  5  6  1  0  0  0  0
  5 13  1  1  0  0  0
  6  7  1  0  0  0  0
  7  8  2  0  0  0  0
  8  9  1  0  0  0  0
 10  8  1  0  0  0  0
 11 10  2  0  0  0  0
 12  6  2  0  0  0  0
 12 11  1  0  0  0  0
 13 14  2  0  0  0  0
 13 15  1  0  0  0  0
 15 17  1  0  0  0  0
 16 15  1  0  0  0  0
 17 19  1  0  0  0  0
 18 17  2  0  0  0  0
 18 20  1  0  0  0  0
 19 21  2  0  0  0  0
 19 22  1  0  0  0  0
 20 23  2  0  0  0  0
 21 24  1  0  0  0  0
 22 25  2  0  0  0  0
 23 22  1  0  0  0  0
 24 26  2  0  0  0  0
 25 26  1  0  0  0  0
M  END
>  <MODEL>
1

>  <REMARK>
 VINA RESULT:    -7.495      0.000      0.000
 INTER + INTRA:          -9.060
 INTER:                  -8.371
 INTRA:                  -0.689
 UNBOUND:                -0.689
 SMILES CN1CC[C@@H](C(=O)Nc2cncc3ccccc23)c2cc(Cl)ccc21
 SMILES IDX 1 1 2 2 3 3 4 4 5 5 19 6 20 7 21 8 22 9 23 10 24 11 25 12
 SMILES IDX 6 13 7 14 8 15 9 17 10 18 18 19 11 20 17 21 13 22 12 23
 SMILES IDX 16 24 14 25 15 26
 H PARENT 8 16

>  <TORSDO>
F 2

$$$$
EDG-MED-971238d3-1
 OpenBabel07072620443D

 27 30  0  0  1  0  0  0  0  0999 V2000
  -20.2630   -5.2010  -26.5160 C   0  0  2  0  0  0  0  0  0  0  0  0
  -19.3190   -4.0360  -26.8090 C   0  0  0  0  0  2  0  0  0  0  0  0
  -18.2930   -3.9400  -25.6960 C   0  0  0  0  0  2  0  0  0  0  0  0
  -17.4760   -5.1110  -25.6330 O   0  0  0  0  0  0  0  0  0  0  0  0
  -18.1680   -6.2910  -25.6180 C   0  0  0  0  0  0  0  0  0  0  0  0
  -17.4460   -7.4060  -25.1860 C   0  0  0  0  0  3  0  0  0  0  0  0
  -18.0560   -8.6580  -25.1260 C   0  0  0  0  0  3  0  0  0  0  0  0
  -19.3870   -8.7920  -25.5060 C   0  0  0  0  0  0  0  0  0  0  0  0
  -20.1510  -10.3310  -25.4230 Cl  0  0  0  0  0  0  0  0  0  0  0  0
  -20.1100   -7.6850  -25.9540 C   0  0  0  0  0  3  0  0  0  0  0  0
  -19.5010   -6.4180  -26.0290 C   0  0  0  0  0  0  0  0  0  0  0  0
  -21.0890   -5.4660  -27.8130 C   0  0  0  0  0  0  0  0  0  0  0  0
  -22.1310   -6.1110  -27.8190 O   0  0  0  0  0  0  0  0  0  0  0  0
  -20.4650   -4.9140  -28.9240 N   0  0  0  0  0  0  0  0  0  0  0  0
  -19.6390   -4.3740  -28.6950 H   0  0  0  0  0  0  0  0  0  0  0  0
  -20.8770   -4.9670  -30.2780 C   0  0  0  0  0  0  0  0  0  0  0  0
  -20.3450   -5.8800  -31.1900 C   0  0  0  0  0  3  0  0  0  0  0  0
  -21.8700   -4.0570  -30.7510 C   0  0  0  0  0  0  0  0  0  0  0  0
  -20.7060   -5.9670  -32.4920 N   0  0  0  0  0  0  0  0  0  0  0  0
  -22.5120   -3.0620  -29.9670 C   0  0  0  0  0  3  0  0  0  0  0  0
  -22.2560   -4.1400  -32.1120 C   0  0  0  0  0  0  0  0  0  0  0  0
  -21.6460   -5.1020  -32.9150 C   0  0  0  0  0  3  0  0  0  0  0  0
  -23.4800   -2.2060  -30.5040 C   0  0  0  0  0  3  0  0  0  0  0  0
  -23.2300   -3.2730  -32.6410 C   0  0  0  0  0  3  0  0  0  0  0  0
  -23.8380   -2.3110  -31.8410 C   0  0  0  0  0  3  0  0  0  0  0  0
  -21.1630   -4.7730  -25.4700 O   0  0  0  0  0  0  0  0  0  0  0  0
  -21.8650   -5.4460  -25.3930 H   0  0  0  0  0  0  0  0  0  0  0  0
  1 12  1  6  0  0  0
  1 11  1  0  0  0  0
  1 26  1  0  0  0  0
  2  1  1  0  0  0  0
  2  3  1  0  0  0  0
  3  4  1  0  0  0  0
  4  5  1  0  0  0  0
  5  6  1  0  0  0  0
  6  7  2  0  0  0  0
  8  9  1  0  0  0  0
  8  7  1  0  0  0  0
 10  8  2  0  0  0  0
 11 10  1  0  0  0  0
 11  5  2  0  0  0  0
 13 12  2  0  0  0  0
 14 15  1  0  0  0  0
 14 12  1  0  0  0  0
 16 14  1  0  0  0  0
 17 16  2  0  0  0  0
 18 16  1  0  0  0  0
 18 20  1  0  0  0  0
 19 17  1  0  0  0  0
 21 18  2  0  0  0  0
 22 19  2  0  0  0  0
 22 21  1  0  0  0  0
 23 20  2  0  0  0  0
 24 21  1  0  0  0  0
 24 25  2  0  0  0  0
 25 23  1  0  0  0  0
 26 27  1  0  0  0  0
M  END
>  <MODEL>
1

>  <REMARK>
 VINA RESULT:    -7.802      0.000      0.000
 INTER + INTRA:          -9.410
 INTER:                  -8.943
 INTRA:                  -0.467
 UNBOUND:                -0.467
 SMILES O=C(Nc1cncc2ccccc12)[C@]1(O)CCOc2ccc(Cl)cc21
 SMILES IDX 14 1 16 2 17 3 18 4 19 5 20 6 21 7 22 8 23 9 24 10 25 11
 SMILES IDX 2 12 1 13 3 14 4 16 5 17 13 18 6 19 12 20 8 21 7 22 11 23
 SMILES IDX 9 24 10 25 15 26
 H PARENT 3 15 15 27

>  <TORSDO>
F 3

$$$$
EDG-MED-971238d3-5
 OpenBabel07072620443D

 29 32  0  0  1  0  0  0  0  0999 V2000
  -20.1610   -5.2150  -26.6470 C   0  0  1  0  0  0  0  0  0  0  0  0
  -19.1900   -4.0530  -26.9780 C   0  0  0  0  0  2  0  0  0  0  0  0
  -18.1750   -3.8560  -25.8690 C   0  0  0  0  0  2  0  0  0  0  0  0
  -17.3560   -5.0040  -25.6900 O   0  0  0  0  0  0  0  0  0  0  0  0
  -18.0150   -6.2010  -25.6670 C   0  0  0  0  0  0  0  0  0  0  0  0
  -17.2570   -7.2740  -25.1870 C   0  0  0  0  0  3  0  0  0  0  0  0
  -17.8050   -8.5520  -25.1160 C   0  0  0  0  0  3  0  0  0  0  0  0
  -19.1120   -8.7570  -25.5400 C   0  0  0  0  0  0  0  0  0  0  0  0
  -19.8030  -10.3300  -25.4540 Cl  0  0  0  0  0  0  0  0  0  0  0  0
  -19.8700   -7.6930  -26.0330 C   0  0  0  0  0  3  0  0  0  0  0  0
  -19.3320   -6.3910  -26.1130 C   0  0  0  0  0  0  0  0  0  0  0  0
  -21.1610   -4.7540  -25.5350 C   0  0  0  0  0  2  0  0  0  0  0  0
  -22.5880   -4.9640  -25.7780 N   0  0  0  0  0  0  0  0  0  0  0  0
  -22.9160   -4.3210  -26.5010 H   0  0  0  0  0  0  0  0  0  0  0  0
  -23.1490   -4.7630  -24.9500 H   0  0  0  0  0  0  0  0  0  0  0  0
  -20.8840   -5.5360  -27.9930 C   0  0  0  0  0  0  0  0  0  0  0  0
  -21.6970   -6.4510  -28.0880 O   0  0  0  0  0  0  0  0  0  0  0  0
  -20.4970   -4.7360  -29.0610 N   0  0  0  0  0  0  0  0  0  0  0  0
  -19.8480   -3.9910  -28.8630 H   0  0  0  0  0  0  0  0  0  0  0  0
  -20.9340   -4.8190  -30.4140 C   0  0  0  0  0  0  0  0  0  0  0  0
  -20.3950   -5.7250  -31.3300 C   0  0  0  0  0  3  0  0  0  0  0  0
  -21.9570   -3.9370  -30.8810 C   0  0  0  0  0  0  0  0  0  0  0  0
  -20.7690   -5.8260  -32.6270 N   0  0  0  0  0  0  0  0  0  0  0  0
  -22.6290   -2.9630  -30.0940 C   0  0  0  0  0  3  0  0  0  0  0  0
  -22.3530   -4.0320  -32.2380 C   0  0  0  0  0  0  0  0  0  0  0  0
  -21.7300   -4.9820  -33.0450 C   0  0  0  0  0  3  0  0  0  0  0  0
  -23.6230   -2.1340  -30.6260 C   0  0  0  0  0  3  0  0  0  0  0  0
  -23.3530   -3.1930  -32.7630 C   0  0  0  0  0  3  0  0  0  0  0  0
  -23.9840   -2.2490  -31.9610 C   0  0  0  0  0  3  0  0  0  0  0  0
  1 11  1  0  0  0  0
  1 12  1  1  0  0  0
  2  1  1  0  0  0  0
  2  3  1  0  0  0  0
  3  4  1  0  0  0  0
  4  5  1  0  0  0  0
  5  6  1  0  0  0  0
  6  7  2  0  0  0  0
  8  9  1  0  0  0  0
  8  7  1  0  0  0  0
 10  8  2  0  0  0  0
 11 10  1  0  0  0  0
 11  5  2  0  0  0  0
 13 12  1  0  0  0  0
 13 15  1  0  0  0  0
 14 13  1  0  0  0  0
 16  1  1  0  0  0  0
 17 16  2  0  0  0  0
 18 19  1  0  0  0  0
 18 16  1  0  0  0  0
 20 18  1  0  0  0  0
 21 20  2  0  0  0  0
 22 20  1  0  0  0  0
 22 24  1  0  0  0  0
 23 21  1  0  0  0  0
 25 22  2  0  0  0  0
 26 23  2  0  0  0  0
 26 25  1  0  0  0  0
 27 24  2  0  0  0  0
 28 25  1  0  0  0  0
 28 29  2  0  0  0  0
 29 27  1  0  0  0  0
M  END
>  <MODEL>
1

>  <REMARK>
 VINA RESULT:    -7.594      0.000      0.000
 INTER + INTRA:          -9.854
 INTER:                  -9.148
 INTRA:                  -0.706
 UNBOUND:                -0.706
 SMILES NC[C@@]1(C(=O)Nc2cncc3ccccc23)CCOc2ccc(Cl)cc21
 SMILES IDX 3 1 17 2 18 3 19 4 20 5 21 6 22 7 23 8 24 9 25 10 26 11 2 12
 SMILES IDX 1 13 4 16 5 17 6 18 7 20 8 21 16 22 9 23 15 24 11 25 10 26
 SMILES IDX 14 27 12 28 13 29
 H PARENT 1 14 1 15 6 19

>  <TORSDO>
F 4

$$$$
EDJ-MED-015fb6b4-2
 OpenBabel07072620443D

 32 35  0  0  1  0  0  0  0  0999 V2000
  -20.4340   -5.5020  -29.3350 N   0  0  0  0  0  0  0  0  0  0  0  0
  -20.5230   -4.3010  -28.5140 C   0  0  0  0  0  2  0  0  0  0  0  0
  -21.9130   -3.6600  -28.5570 C   0  0  1  0  0  3  0  0  0  0  0  0
  -22.3800   -3.5280  -29.9910 C   0  0  0  0  0  0  0  0  0  0  0  0
  -23.3160   -2.5430  -30.3470 C   0  0  0  0  0  3  0  0  0  0  0  0
  -23.7600   -2.4410  -31.6660 C   0  0  0  0  0  0  0  0  0  0  0  0
  -24.8990   -1.2230  -32.0900 Cl  0  0  0  0  0  0  0  0  0  0  0  0
  -23.2890   -3.3170  -32.6420 C   0  0  0  0  0  3  0  0  0  0  0  0
  -22.3650   -4.3070  -32.2960 C   0  0  0  0  0  3  0  0  0  0  0  0
  -21.9090   -4.4160  -30.9750 C   0  0  0  0  0  0  0  0  0  0  0  0
  -20.9260   -5.4860  -30.6380 C   0  0  0  0  0  0  0  0  0  0  0  0
  -20.5560   -6.2850  -31.4950 O   0  0  0  0  0  0  0  0  0  0  0  0
  -19.3860   -6.4710  -29.0170 C   0  0  0  0  0  2  0  0  0  0  0  0
  -19.4520   -6.8510  -27.5370 C   0  0  0  0  0  0  0  0  0  0  0  0
  -20.5230   -7.6620  -27.2230 N   0  0  0  0  0  0  0  0  0  0  0  0
  -18.5740   -6.5320  -26.7390 O   0  0  0  0  0  0  0  0  0  0  0  0
  -20.6390   -8.2630  -25.9210 C   0  0  0  0  0  1  0  0  0  0  0  0
  -20.9590   -8.1440  -28.0130 H   0  0  0  0  0  0  0  0  0  0  0  0
  -22.8920   -4.4500  -27.6770 C   0  0  0  0  0  0  0  0  0  0  0  0
  -22.6710   -5.6070  -27.3370 O   0  0  0  0  0  0  0  0  0  0  0  0
  -24.0230   -3.7170  -27.3390 N   0  0  0  0  0  0  0  0  0  0  0  0
  -24.0940   -2.7890  -27.7280 H   0  0  0  0  0  0  0  0  0  0  0  0
  -25.1110   -4.1330  -26.5220 C   0  0  0  0  0  0  0  0  0  0  0  0
  -26.2850   -4.6770  -27.0460 C   0  0  0  0  0  3  0  0  0  0  0  0
  -25.0200   -4.0020  -25.1010 C   0  0  0  0  0  0  0  0  0  0  0  0
  -27.3440   -5.0870  -26.3080 N   0  0  0  0  0  0  0  0  0  0  0  0
  -23.9070   -3.4760  -24.3900 C   0  0  0  0  0  3  0  0  0  0  0  0
  -26.1220   -4.4270  -24.3200 C   0  0  0  0  0  0  0  0  0  0  0  0
  -27.2340   -4.9510  -24.9730 C   0  0  0  0  0  3  0  0  0  0  0  0
  -23.8940   -3.3810  -22.9940 C   0  0  0  0  0  3  0  0  0  0  0  0
  -26.1000   -4.3260  -22.9160 C   0  0  0  0  0  3  0  0  0  0  0  0
  -24.9900   -3.8050  -22.2580 C   0  0  0  0  0  3  0  0  0  0  0  0
  1 13  1  0  0  0  0
  1  2  1  0  0  0  0
  3  2  1  0  0  0  0
  3 19  1  1  0  0  0
  4  3  1  0  0  0  0
  5  4  1  0  0  0  0
  6  5  2  0  0  0  0
  7  6  1  0  0  0  0
  8  9  2  0  0  0  0
  8  6  1  0  0  0  0
  9 10  1  0  0  0  0
 10 11  1  0  0  0  0
 10  4  2  0  0  0  0
 11  1  1  0  0  0  0
 12 11  2  0  0  0  0
 13 14  1  0  0  0  0
 14 15  1  0  0  0  0
 14 16  2  0  0  0  0
 15 17  1  0  0  0  0
 18 15  1  0  0  0  0
 19 21  1  0  0  0  0
 19 20  2  0  0  0  0
 21 23  1  0  0  0  0
 22 21  1  0  0  0  0
 23 25  1  0  0  0  0
 24 23  2  0  0  0  0
 24 26  1  0  0  0  0
 25 27  2  0  0  0  0
 25 28  1  0  0  0  0
 26 29  2  0  0  0  0
 27 30  1  0  0  0  0
 28 31  2  0  0  0  0
 29 28  1  0  0  0  0
 30 32  2  0  0  0  0
 31 32  1  0  0  0  0
M  END
>  <MODEL>
1

>  <REMARK>
 VINA RESULT:    -8.104      0.000      0.000
 INTER + INTRA:         -11.073
 INTER:                  -9.999
 INTRA:                  -1.074
 UNBOUND:                -1.074
 SMILES CNC(=O)CN1CC(C(=O)Nc2cncc3ccccc23)c2cc(Cl)ccc2C1=O
 SMILES IDX 6 1 7 2 8 3 22 4 23 5 24 6 25 7 26 8 27 9 28 10 29 11 30 12
 SMILES IDX 5 13 3 14 2 15 4 16 1 17 9 19 10 20 11 21 12 23 13 24 21 25
 SMILES IDX 14 26 20 27 16 28 15 29 19 30 17 31 18 32
 H PARENT 2 18 11 22

>  <TORSDO>
F 4

$$$$
EDJ-MED-12c115cc-1
 OpenBabel07072620443D

 24 27  0  0  1  0  0  0  0  0999 V2000
  -20.1310   -5.6190  -26.5590 C   0  0  2  0  0  3  0  0  0  0  0  0
  -19.2800   -5.0250  -25.4290 C   0  0  0  0  0  2  0  0  0  0  0  0
  -18.4310   -6.0680  -24.8890 O   0  0  0  0  0  0  0  0  0  0  0  0
  -18.3100   -6.9500  -25.9300 C   0  0  0  0  0  0  0  0  0  0  0  0
  -17.3810   -7.9720  -25.9650 C   0  0  0  0  0  3  0  0  0  0  0  0
  -17.3690   -8.8050  -27.0850 C   0  0  0  0  0  3  0  0  0  0  0  0
  -18.2860   -8.5980  -28.1260 C   0  0  0  0  0  0  0  0  0  0  0  0
  -18.2630   -9.6430  -29.4950 Cl  0  0  0  0  0  0  0  0  0  0  0  0
  -19.2280   -7.5660  -28.0670 C   0  0  0  0  0  3  0  0  0  0  0  0
  -19.2260   -6.7410  -26.9530 C   0  0  0  0  0  0  0  0  0  0  0  0
  -20.4350   -4.6150  -27.6590 C   0  0  0  0  0  0  0  0  0  0  0  0
  -19.7180   -3.6470  -27.8790 O   0  0  0  0  0  0  0  0  0  0  0  0
  -21.6050   -4.9250  -28.3410 N   0  0  0  0  0  0  0  0  0  0  0  0
  -22.1040   -5.7410  -28.0180 H   0  0  0  0  0  0  0  0  0  0  0  0
  -22.1820   -4.2270  -29.4370 C   0  0  0  0  0  0  0  0  0  0  0  0
  -23.0870   -3.1760  -29.2690 C   0  0  0  0  0  3  0  0  0  0  0  0
  -21.8360   -4.5960  -30.7730 C   0  0  0  0  0  0  0  0  0  0  0  0
  -23.6620   -2.4840  -30.2810 N   0  0  0  0  0  0  0  0  0  0  0  0
  -20.9340   -5.6340  -31.1340 C   0  0  0  0  0  3  0  0  0  0  0  0
  -22.4310   -3.8780  -31.8390 C   0  0  0  0  0  0  0  0  0  0  0  0
  -23.3210   -2.8510  -31.5310 C   0  0  0  0  0  3  0  0  0  0  0  0
  -20.6450   -5.9340  -32.4700 C   0  0  0  0  0  3  0  0  0  0  0  0
  -22.1330   -4.1880  -33.1780 C   0  0  0  0  0  3  0  0  0  0  0  0
  -21.2450   -5.2120  -33.4920 C   0  0  0  0  0  3  0  0  0  0  0  0
  1 11  1  6  0  0  0
  1  2  1  0  0  0  0
  2  3  1  0  0  0  0
  4  3  1  0  0  0  0
  5  4  1  0  0  0  0
  6  5  2  0  0  0  0
  7  9  2  0  0  0  0
  7  6  1  0  0  0  0
  8  7  1  0  0  0  0
  9 10  1  0  0  0  0
 10  1  1  0  0  0  0
 10  4  2  0  0  0  0
 12 11  2  0  0  0  0
 13 14  1  0  0  0  0
 13 11  1  0  0  0  0
 15 16  1  0  0  0  0
 15 13  1  0  0  0  0
 17 15  2  0  0  0  0
 18 16  2  0  0  0  0
 19 17  1  0  0  0  0
 20 21  2  0  0  0  0
 20 17  1  0  0  0  0
 21 18  1  0  0  0  0
 22 19  2  0  0  0  0
 23 20  1  0  0  0  0
 24 23  2  0  0  0  0
 24 22  1  0  0  0  0
M  END
>  <MODEL>
1

>  <REMARK>
 VINA RESULT:    -7.429      0.000      0.000
 INTER + INTRA:          -9.026
 INTER:                  -8.298
 INTRA:                  -0.729
 UNBOUND:                -0.729
 SMILES O=C(Nc1cncc2ccccc12)[C@@H]1COc2ccc(Cl)cc21
 SMILES IDX 14 1 15 2 16 3 17 4 18 5 19 6 20 7 21 8 22 9 23 10 2 11 1 12
 SMILES IDX 3 13 4 15 5 16 13 17 6 18 12 19 8 20 7 21 11 22 9 23 10 24
 H PARENT 3 14

>  <TORSDO>
F 2

$$$$
EDJ-MED-12c115cc-2
 OpenBabel07072620443D

 24 27  0  0  1  0  0  0  0  0999 V2000
  -21.8120   -5.0850  -29.2300 C   0  0  1  0  0  3  0  0  0  0  0  0
  -22.5610   -3.9710  -28.4880 C   0  0  0  0  0  2  0  0  0  0  0  0
  -23.4910   -3.3280  -29.3890 O   0  0  0  0  0  0  0  0  0  0  0  0
  -23.0120   -3.6420  -30.6330 C   0  0  0  0  0  0  0  0  0  0  0  0
  -23.4710   -3.0680  -31.8030 C   0  0  0  0  0  3  0  0  0  0  0  0
  -22.9050   -3.4940  -33.0070 C   0  0  0  0  0  3  0  0  0  0  0  0
  -21.9080   -4.4810  -33.0080 C   0  0  0  0  0  0  0  0  0  0  0  0
  -21.2320   -5.0000  -34.5040 Cl  0  0  0  0  0  0  0  0  0  0  0  0
  -21.4650   -5.0590  -31.8150 C   0  0  0  0  0  3  0  0  0  0  0  0
  -22.0270   -4.6180  -30.6270 C   0  0  0  0  0  0  0  0  0  0  0  0
  -20.3740   -5.1740  -28.7480 C   0  0  0  0  0  0  0  0  0  0  0  0
  -19.4240   -5.2740  -29.5170 O   0  0  0  0  0  0  0  0  0  0  0  0
  -20.2850   -5.1390  -27.3610 N   0  0  0  0  0  0  0  0  0  0  0  0
  -21.1580   -5.1360  -26.8540 H   0  0  0  0  0  0  0  0  0  0  0  0
  -19.1030   -5.1630  -26.5700 C   0  0  0  0  0  0  0  0  0  0  0  0
  -18.5050   -4.0030  -26.0720 C   0  0  0  0  0  3  0  0  0  0  0  0
  -18.4910   -6.4140  -26.2470 C   0  0  0  0  0  0  0  0  0  0  0  0
  -17.3870   -3.9780  -25.3090 N   0  0  0  0  0  0  0  0  0  0  0  0
  -18.9570   -7.6920  -26.6620 C   0  0  0  0  0  3  0  0  0  0  0  0
  -17.3200   -6.3990  -25.4500 C   0  0  0  0  0  0  0  0  0  0  0  0
  -16.8270   -5.1690  -25.0220 C   0  0  0  0  0  3  0  0  0  0  0  0
  -18.2990   -8.8750  -26.3050 C   0  0  0  0  0  3  0  0  0  0  0  0
  -16.6670   -7.5940  -25.0970 C   0  0  0  0  0  3  0  0  0  0  0  0
  -17.1550   -8.8250  -25.5230 C   0  0  0  0  0  3  0  0  0  0  0  0
  1 11  1  1  0  0  0
  1  2  1  0  0  0  0
  3  2  1  0  0  0  0
  4 10  1  0  0  0  0
  4  3  1  0  0  0  0
  5  4  2  0  0  0  0
  6  5  1  0  0  0  0
  7  6  2  0  0  0  0
  7  9  1  0  0  0  0
  8  7  1  0  0  0  0
  9 10  2  0  0  0  0
 10  1  1  0  0  0  0
 11 13  1  0  0  0  0
 12 11  2  0  0  0  0
 13 14  1  0  0  0  0
 13 15  1  0  0  0  0
 15 17  2  0  0  0  0
 15 16  1  0  0  0  0
 16 18  2  0  0  0  0
 17 20  1  0  0  0  0
 18 21  1  0  0  0  0
 19 22  2  0  0  0  0
 19 17  1  0  0  0  0
 20 23  1  0  0  0  0
 20 21  2  0  0  0  0
 22 24  1  0  0  0  0
 24 23  2  0  0  0  0
M  END
>  <MODEL>
1

>  <REMARK>
 VINA RESULT:    -7.780      0.000      0.000
 INTER + INTRA:          -8.951
 INTER:                  -8.690
 INTRA:                  -0.261
 UNBOUND:                -0.261
 SMILES O=C(Nc1cncc2ccccc12)[C@H]1COc2ccc(Cl)cc21
 SMILES IDX 14 1 15 2 16 3 17 4 18 5 19 6 20 7 21 8 22 9 23 10 2 11 1 12
 SMILES IDX 3 13 4 15 5 16 13 17 6 18 12 19 8 20 7 21 11 22 9 23 10 24
 H PARENT 3 14

>  <TORSDO>
F 2

$$$$
EDJ-MED-4fff0a85-4
 OpenBabel07072620443D

 35 39  0  0  1  0  0  0  0  0999 V2000
  -19.7570   -6.3070  -29.5610 C   0  0  2  0  0  3  0  0  0  0  0  0
  -19.6870   -6.6570  -28.0690 C   0  0  0  0  0  2  0  0  0  0  0  0
  -19.3760   -5.4380  -27.2980 N   0  0  0  0  0  0  0  0  0  0  0  0
  -20.3510   -4.3430  -27.4270 C   0  0  0  0  0  2  0  0  0  0  0  0
  -21.0670   -4.2920  -28.7670 C   0  0  0  0  0  0  0  0  0  0  0  0
  -22.0090   -3.2700  -28.9780 C   0  0  0  0  0  3  0  0  0  0  0  0
  -22.6890   -3.1670  -30.1910 C   0  0  0  0  0  3  0  0  0  0  0  0
  -22.4280   -4.0830  -31.2030 C   0  0  0  0  0  0  0  0  0  0  0  0
  -23.2540   -3.9510  -32.7060 Cl  0  0  0  0  0  0  0  0  0  0  0  0
  -21.4960   -5.1050  -31.0130 C   0  0  0  0  0  3  0  0  0  0  0  0
  -20.8130   -5.2320  -29.7920 C   0  0  0  0  0  0  0  0  0  0  0  0
  -20.0000   -7.6100  -30.3250 C   0  0  0  0  0  0  0  0  0  0  0  0
  -20.7950   -8.4510  -29.9150 O   0  0  0  0  0  0  0  0  0  0  0  0
  -19.2560   -7.6960  -31.4920 N   0  0  0  0  0  0  0  0  0  0  0  0
  -18.6500   -6.9140  -31.6960 H   0  0  0  0  0  0  0  0  0  0  0  0
  -19.2510   -8.7560  -32.4400 C   0  0  0  0  0  0  0  0  0  0  0  0
  -18.9210  -10.0710  -32.1010 C   0  0  0  0  0  3  0  0  0  0  0  0
  -19.5940   -8.4910  -33.8020 C   0  0  0  0  0  0  0  0  0  0  0  0
  -18.9010  -11.1090  -32.9680 N   0  0  0  0  0  0  0  0  0  0  0  0
  -19.9590   -7.2230  -34.3280 C   0  0  0  0  0  3  0  0  0  0  0  0
  -19.5770   -9.5720  -34.7180 C   0  0  0  0  0  0  0  0  0  0  0  0
  -19.2280  -10.8340  -34.2450 C   0  0  0  0  0  3  0  0  0  0  0  0
  -20.2830   -7.0430  -35.6780 C   0  0  0  0  0  3  0  0  0  0  0  0
  -19.9050   -9.3800  -36.0730 C   0  0  0  0  0  3  0  0  0  0  0  0
  -20.2550   -8.1210  -36.5500 C   0  0  0  0  0  3  0  0  0  0  0  0
  -18.4360   -5.5480  -25.9230 S   0  0  0  0  0  0  0  0  0  0  0  0
  -19.3130   -5.7370  -24.7880 O   0  0  0  0  0  0  0  0  0  0  0  0
  -17.5010   -4.4450  -25.9650 O   0  0  0  0  0  0  0  0  0  0  0  0
  -17.4710   -7.0470  -26.1380 C   0  0  0  0  0  2  0  0  0  0  0  0
  -17.3880   -7.9040  -24.8890 C   0  0  0  0  0  3  0  0  0  0  0  0
  -18.2270   -9.2120  -24.9580 C   0  0  0  0  0  2  0  0  0  0  0  0
  -16.0850   -8.7300  -24.6580 C   0  0  0  0  0  2  0  0  0  0  0  0
  -17.0480  -10.0090  -23.9010 S   0  0  0  0  0  0  0  0  0  0  0  0
  -17.3060   -9.7230  -22.5060 O   0  0  0  0  0  0  0  0  0  0  0  0
  -16.6890  -11.3200  -24.3960 O   0  0  0  0  0  0  0  0  0  0  0  0
  1 12  1  6  0  0  0
  1  2  1  0  0  0  0
  2  3  1  0  0  0  0
  3 26  1  0  0  0  0
  4  3  1  0  0  0  0
  5  4  1  0  0  0  0
  6  5  1  0  0  0  0
  7  6  2  0  0  0  0
  8 10  2  0  0  0  0
  8  7  1  0  0  0  0
  9  8  1  0  0  0  0
 10 11  1  0  0  0  0
 11  1  1  0  0  0  0
 11  5  2  0  0  0  0
 12 13  2  0  0  0  0
 14 12  1  0  0  0  0
 15 14  1  0  0  0  0
 16 17  1  0  0  0  0
 16 14  1  0  0  0  0
 18 16  2  0  0  0  0
 19 17  2  0  0  0  0
 20 18  1  0  0  0  0
 21 22  2  0  0  0  0
 21 18  1  0  0  0  0
 22 19  1  0  0  0  0
 23 20  2  0  0  0  0
 24 21  1  0  0  0  0
 25 24  2  0  0  0  0
 25 23  1  0  0  0  0
 26 27  2  0  0  0  0
 28 26  2  0  0  0  0
 29 26  1  0  0  0  0
 29 30  1  0  0  0  0
 30 32  1  0  0  0  0
 31 30  1  0  0  0  0
 31 33  1  0  0  0  0
 32 33  1  0  0  0  0
 33 34  2  0  0  0  0
 35 33  2  0  0  0  0
M  END
>  <MODEL>
1

>  <REMARK>
 VINA RESULT:    -8.129      0.000      0.000
 INTER + INTRA:         -11.549
 INTER:                 -10.505
 INTRA:                  -1.045
 UNBOUND:                -1.045
 SMILES O=C(Nc1cncc2ccccc12)C1CN(S(=O)(=O)CC2CS(=O)(=O)C2)Cc2ccc(Cl)cc21
 SMILES IDX 14 1 15 2 16 3 27 4 28 5 29 6 30 7 31 8 32 9 33 10 34 11
 SMILES IDX 2 12 1 13 3 14 4 16 5 17 13 18 6 19 12 20 8 21 7 22 11 23
 SMILES IDX 9 24 10 25 17 26 18 27 19 28 20 29 21 30 22 31 26 32 23 33
 SMILES IDX 24 34 25 35
 H PARENT 3 15

>  <TORSDO>
F 5

$$$$
EDJ-MED-611d11e7-12
 OpenBabel07072620443D

 26 29  0  0  1  0  0  0  0  0999 V2000
  -19.3810   -6.6310  -34.7380 C   0  0  2  0  0  3  0  0  0  0  0  0
  -20.3090   -6.7370  -35.9520 C   0  0  0  0  0  2  0  0  0  0  0  0
  -20.1070   -8.0790  -36.6280 C   0  0  0  0  0  2  0  0  0  0  0  0
  -20.4680   -9.1560  -35.7640 O   0  0  0  0  0  0  0  0  0  0  0  0
  -19.8840   -9.1070  -34.5270 C   0  0  0  0  0  0  0  0  0  0  0  0
  -19.8720  -10.3080  -33.8190 C   0  0  0  0  0  3  0  0  0  0  0  0
  -19.2790  -10.3620  -32.5630 C   0  0  0  0  0  0  0  0  0  0  0  0
  -19.2630  -11.5320  -31.9060 F   0  0  0  0  0  0  0  0  0  0  0  0
  -18.7000   -9.2260  -32.0070 C   0  0  0  0  0  0  0  0  0  0  0  0
  -17.9430   -9.2920  -30.4620 Cl  0  0  0  0  0  0  0  0  0  0  0  0
  -18.7260   -8.0180  -32.7070 C   0  0  0  0  0  3  0  0  0  0  0  0
  -19.3440   -7.9380  -33.9690 C   0  0  0  0  0  0  0  0  0  0  0  0
  -19.8240   -5.4150  -33.9100 C   0  0  0  0  0  0  0  0  0  0  0  0
  -19.1390   -4.4030  -33.8150 O   0  0  0  0  0  0  0  0  0  0  0  0
  -21.0480   -5.6190  -33.2840 N   0  0  0  0  0  0  0  0  0  0  0  0
  -21.4950   -6.5060  -33.4620 H   0  0  0  0  0  0  0  0  0  0  0  0
  -21.7390   -4.7130  -32.4310 C   0  0  0  0  0  0  0  0  0  0  0  0
  -22.8130   -3.9320  -32.8600 C   0  0  0  0  0  3  0  0  0  0  0  0
  -21.3410   -4.5710  -31.0670 C   0  0  0  0  0  0  0  0  0  0  0  0
  -23.4950   -3.0610  -32.0760 N   0  0  0  0  0  0  0  0  0  0  0  0
  -20.2880   -5.2560  -30.4310 C   0  0  0  0  0  3  0  0  0  0  0  0
  -22.0390   -3.6680  -30.2390 C   0  0  0  0  0  0  0  0  0  0  0  0
  -23.0950   -2.9510  -30.7950 C   0  0  0  0  0  3  0  0  0  0  0  0
  -19.9170   -5.1140  -29.1340 N   0  0  0  0  0  0  0  0  0  0  0  0
  -21.6770   -3.5010  -28.8950 C   0  0  0  0  0  3  0  0  0  0  0  0
  -20.6210   -4.2380  -28.3960 C   0  0  0  0  0  3  0  0  0  0  0  0
  1 12  1  0  0  0  0
  1 13  1  1  0  0  0
  2  1  1  0  0  0  0
  3  2  1  0  0  0  0
  3  4  1  0  0  0  0
  4  5  1  0  0  0  0
  5 12  2  0  0  0  0
  5  6  1  0  0  0  0
  6  7  2  0  0  0  0
  7  9  1  0  0  0  0
  7  8  1  0  0  0  0
  9 10  1  0  0  0  0
 11  9  2  0  0  0  0
 12 11  1  0  0  0  0
 13 14  2  0  0  0  0
 13 15  1  0  0  0  0
 15 17  1  0  0  0  0
 16 15  1  0  0  0  0
 17 19  1  0  0  0  0
 18 17  2  0  0  0  0
 18 20  1  0  0  0  0
 19 21  2  0  0  0  0
 19 22  1  0  0  0  0
 20 23  2  0  0  0  0
 21 24  1  0  0  0  0
 22 25  2  0  0  0  0
 23 22  1  0  0  0  0
 24 26  2  0  0  0  0
 25 26  1  0  0  0  0
M  END
>  <MODEL>
1

>  <REMARK>
 VINA RESULT:    -7.413      0.000      0.000
 INTER + INTRA:          -8.964
 INTER:                  -8.279
 INTRA:                  -0.685
 UNBOUND:                -0.685
 SMILES O=C(Nc1cncc2ccncc12)[C@@H]1CCOc2cc(F)c(Cl)cc21
 SMILES IDX 14 1 15 2 16 3 17 4 18 5 19 6 20 7 21 8 22 9 23 10 24 11
 SMILES IDX 25 12 2 13 1 14 3 15 4 17 5 18 13 19 6 20 12 21 8 22 7 23
 SMILES IDX 11 24 9 25 10 26
 H PARENT 3 16

>  <TORSDO>
F 2

$$$$
EDJ-MED-611d11e7-6
 OpenBabel07072620443D

 27 30  0  0  1  0  0  0  0  0999 V2000
  -19.7520   -3.7230  -27.8030 O   0  0  0  0  0  0  0  0  0  0  0  0
  -20.5730   -4.5810  -27.5020 C   0  0  0  0  0  0  0  0  0  0  0  0
  -21.7630   -4.8240  -28.1720 N   0  0  0  0  0  0  0  0  0  0  0  0
  -22.3650   -5.5260  -27.7700 H   0  0  0  0  0  0  0  0  0  0  0  0
  -20.3570   -5.5240  -26.3040 C   0  0  2  0  0  3  0  0  0  0  0  0
  -19.8150   -4.7450  -25.1020 C   0  0  0  0  0  2  0  0  0  0  0  0
  -19.4360   -6.6770  -26.6500 C   0  0  0  0  0  0  0  0  0  0  0  0
  -18.3060   -4.5880  -25.2050 C   0  0  0  0  0  2  0  0  0  0  0  0
  -19.8600   -7.6960  -27.5230 C   0  0  0  0  0  3  0  0  0  0  0  0
  -18.1530   -6.7650  -26.0900 C   0  0  0  0  0  0  0  0  0  0  0  0
  -17.6480   -5.8560  -25.2010 O   0  0  0  0  0  0  0  0  0  0  0  0
  -19.0150   -8.7700  -27.8220 C   0  0  0  0  0  0  0  0  0  0  0  0
  -17.3180   -7.8450  -26.3800 C   0  0  0  0  0  3  0  0  0  0  0  0
  -17.7510   -8.8390  -27.2490 C   0  0  0  0  0  0  0  0  0  0  0  0
  -19.5670  -10.0000  -28.8930 Cl  0  0  0  0  0  0  0  0  0  0  0  0
  -16.9310   -9.8660  -27.5170 F   0  0  0  0  0  0  0  0  0  0  0  0
  -22.2450   -4.1760  -29.3430 C   0  0  0  0  0  0  0  0  0  0  0  0
  -23.1070   -3.0780  -29.2980 C   0  0  0  0  0  3  0  0  0  0  0  0
  -21.8390   -4.6410  -30.6300 C   0  0  0  0  0  0  0  0  0  0  0  0
  -23.5860   -2.4270  -30.3840 N   0  0  0  0  0  0  0  0  0  0  0  0
  -20.9710   -5.7380  -30.8670 C   0  0  0  0  0  3  0  0  0  0  0  0
  -22.3330   -3.9670  -31.7770 C   0  0  0  0  0  0  0  0  0  0  0  0
  -23.1890   -2.8850  -31.5870 C   0  0  0  0  0  3  0  0  0  0  0  0
  -20.6240   -6.1260  -32.1610 C   0  0  0  0  0  0  0  0  0  0  0  0
  -21.9700   -4.3740  -33.0750 C   0  0  0  0  0  3  0  0  0  0  0  0
  -21.1160   -5.4550  -33.2670 C   0  0  0  0  0  3  0  0  0  0  0  0
  -19.8030   -7.1690  -32.3320 F   0  0  0  0  0  0  0  0  0  0  0  0
  1  2  2  0  0  0  0
  3  4  1  0  0  0  0
  3  2  1  0  0  0  0
  5  2  1  6  0  0  0
  5  6  1  0  0  0  0
  7  5  1  0  0  0  0
  7 10  1  0  0  0  0
  8 11  1  0  0  0  0
  8  6  1  0  0  0  0
  9  7  2  0  0  0  0
 10 11  1  0  0  0  0
 12  9  1  0  0  0  0
 12 14  2  0  0  0  0
 13 10  2  0  0  0  0
 14 13  1  0  0  0  0
 15 12  1  0  0  0  0
 16 14  1  0  0  0  0
 17 18  1  0  0  0  0
 17  3  1  0  0  0  0
 19 17  2  0  0  0  0
 20 18  2  0  0  0  0
 21 19  1  0  0  0  0
 22 23  2  0  0  0  0
 22 19  1  0  0  0  0
 23 20  1  0  0  0  0
 24 21  2  0  0  0  0
 25 22  1  0  0  0  0
 26 25  2  0  0  0  0
 26 24  1  0  0  0  0
 27 24  1  0  0  0  0
M  END
>  <MODEL>
1

>  <REMARK>
 VINA RESULT:    -8.002      0.000      0.000
 INTER + INTRA:          -9.582
 INTER:                  -8.938
 INTRA:                  -0.644
 UNBOUND:                -0.644
 SMILES O=C(Nc1cncc2ccc(F)cc12)[C@@H]1CCOc2cc(F)c(Cl)cc21
 SMILES IDX 1 1 2 2 3 3 15 5 16 6 26 7 17 8 25 9 19 10 18 11 23 12 20 13
 SMILES IDX 21 14 24 15 22 16 4 17 5 18 14 19 6 20 13 21 8 22 7 23 11 24
 SMILES IDX 9 25 10 26 12 27
 H PARENT 3 4

>  <TORSDO>
F 2

$$$$
EDJ-MED-611d11e7-7
 OpenBabel07072620443D

 29 32  0  0  1  0  0  0  0  0999 V2000
  -19.7540   -7.1170  -30.0500 N   0  0  0  0  0  0  0  0  0  0  0  0
  -20.0290   -7.5430  -28.7570 C   0  0  0  0  0  0  0  0  0  0  0  0
  -20.0760   -8.7130  -28.3900 O   0  0  0  0  0  0  0  0  0  0  0  0
  -19.7290   -6.1080  -30.1500 H   0  0  0  0  0  0  0  0  0  0  0  0
  -19.4830   -7.9020  -31.1970 C   0  0  0  0  0  0  0  0  0  0  0  0
  -20.7750   -5.7320  -34.0460 C   0  0  0  0  0  0  0  0  0  0  0  0
  -20.4820   -6.5520  -35.1270 C   0  0  0  0  0  3  0  0  0  0  0  0
  -20.4530   -6.1590  -32.7510 C   0  0  0  0  0  3  0  0  0  0  0  0
  -19.8740   -7.7890  -34.9110 C   0  0  0  0  0  3  0  0  0  0  0  0
  -19.8340   -7.4110  -32.4900 C   0  0  0  0  0  0  0  0  0  0  0  0
  -19.5500   -8.2200  -33.6120 C   0  0  0  0  0  0  0  0  0  0  0  0
  -18.9420   -9.4570  -33.4000 C   0  0  0  0  0  3  0  0  0  0  0  0
  -18.8800   -9.1590  -31.1230 C   0  0  0  0  0  3  0  0  0  0  0  0
  -18.6010   -9.9430  -32.1910 N   0  0  0  0  0  0  0  0  0  0  0  0
  -21.3650   -4.4990  -34.1080 O   0  0  0  0  0  0  0  0  0  0  0  0
  -22.3200   -4.1900  -33.1010 C   0  0  0  0  0  1  0  0  0  0  0  0
  -20.3020   -6.3390  -27.7850 C   0  0  2  0  0  0  0  0  0  0  0  0
  -20.5890   -5.0840  -28.6290 C   0  0  0  0  0  2  0  0  0  0  0  0
  -19.0840   -6.0600  -26.8990 C   0  0  0  0  0  0  0  0  0  0  0  0
  -20.5540   -3.8620  -27.7360 C   0  0  0  0  0  2  0  0  0  0  0  0
  -18.3910   -7.0940  -26.2380 C   0  0  0  0  0  3  0  0  0  0  0  0
  -18.6440   -4.7420  -26.6890 C   0  0  0  0  0  0  0  0  0  0  0  0
  -19.2390   -3.6370  -27.2340 O   0  0  0  0  0  0  0  0  0  0  0  0
  -17.2790   -6.8170  -25.4390 C   0  0  0  0  0  0  0  0  0  0  0  0
  -17.5200   -4.4730  -25.9010 C   0  0  0  0  0  3  0  0  0  0  0  0
  -16.8350   -5.5110  -25.2740 C   0  0  0  0  0  3  0  0  0  0  0  0
  -16.4530   -8.1060  -24.6530 Cl  0  0  0  0  0  0  0  0  0  0  0  0
  -21.3570   -6.6670  -26.8550 O   0  0  0  0  0  0  0  0  0  0  0  0
  -22.6790   -6.6960  -27.3830 C   0  0  0  0  0  1  0  0  0  0  0  0
  1  2  1  0  0  0  0
  2  3  2  0  0  0  0
  4  1  1  0  0  0  0
  5 13  1  0  0  0  0
  5  1  1  0  0  0  0
  6  8  2  0  0  0  0
  7  9  2  0  0  0  0
  7  6  1  0  0  0  0
  8 10  1  0  0  0  0
  9 11  1  0  0  0  0
 10  5  2  0  0  0  0
 11 12  2  0  0  0  0
 11 10  1  0  0  0  0
 12 14  1  0  0  0  0
 14 13  2  0  0  0  0
 15  6  1  0  0  0  0
 15 16  1  0  0  0  0
 17  2  1  6  0  0  0
 17 19  1  0  0  0  0
 17 28  1  0  0  0  0
 18 17  1  0  0  0  0
 18 20  1  0  0  0  0
 19 22  2  0  0  0  0
 19 21  1  0  0  0  0
 20 23  1  0  0  0  0
 21 24  2  0  0  0  0
 22 25  1  0  0  0  0
 23 22  1  0  0  0  0
 24 26  1  0  0  0  0
 24 27  1  0  0  0  0
 25 26  2  0  0  0  0
 29 28  1  0  0  0  0
M  END
>  <MODEL>
1

>  <REMARK>
 VINA RESULT:    -7.625      0.000      0.000
 INTER + INTRA:          -9.835
 INTER:                  -9.409
 INTRA:                  -0.427
 UNBOUND:                -0.427
 SMILES COc1ccc2cncc(NC(=O)[C@]3(OC)CCOc4ccc(Cl)cc43)c2c1
 SMILES IDX 11 1 12 2 13 3 10 5 3 6 4 7 28 8 5 9 27 10 6 11 7 12 9 13
 SMILES IDX 8 14 2 15 1 16 14 17 17 18 26 19 18 20 25 21 20 22 19 23
 SMILES IDX 23 24 21 25 22 26 24 27 15 28 16 29
 H PARENT 11 4

>  <TORSDO>
F 4

$$$$
EDJ-MED-705e09b8-1
 OpenBabel07072620443D

 32 36  0  0  1  0  0  0  0  0999 V2000
  -18.9300   -7.4350  -26.9690 C   0  0  0  0  0  2  0  0  0  0  0  0
  -18.0980   -6.7990  -25.8460 C   0  0  0  0  0  0  0  0  0  0  0  0
  -17.7120   -5.5020  -26.1000 N   0  0  0  0  0  0  0  0  0  0  0  0
  -17.7710   -7.4230  -24.8410 O   0  0  0  0  0  0  0  0  0  0  0  0
  -16.8470   -4.7570  -25.2250 C   0  0  0  0  0  1  0  0  0  0  0  0
  -17.9900   -5.1240  -27.0020 H   0  0  0  0  0  0  0  0  0  0  0  0
  -19.8700   -6.4580  -27.5820 N   0  0  0  0  0  0  0  0  0  0  0  0
  -19.6490   -6.4360  -29.0420 C   0  0  0  0  0  2  0  0  0  0  0  0
  -21.2730   -6.8630  -27.3300 C   0  0  0  0  0  2  0  0  0  0  0  0
  -20.7130   -5.6840  -29.8190 C   0  0  0  0  0  0  0  0  0  0  0  0
  -22.2380   -5.7510  -27.7960 C   0  0  2  0  0  0  0  0  0  0  0  0
  -20.4450   -5.3290  -31.1520 C   0  0  0  0  0  3  0  0  0  0  0  0
  -21.9860   -5.4140  -29.2660 C   0  0  0  0  0  0  0  0  0  0  0  0
  -22.1060   -4.4870  -26.9150 C   0  0  0  0  0  2  0  0  0  0  0  0
  -23.6640   -6.2190  -27.4980 C   0  0  0  0  0  0  0  0  0  0  0  0
  -21.4180   -4.7060  -31.9330 C   0  0  0  0  0  3  0  0  0  0  0  0
  -22.9600   -4.7980  -30.0720 C   0  0  0  0  0  3  0  0  0  0  0  0
  -23.5320   -4.0010  -26.7630 C   0  0  0  0  0  2  0  0  0  0  0  0
  -24.2950   -5.2230  -26.7310 N   0  0  0  0  0  0  0  0  0  0  0  0
  -24.1530   -7.2590  -27.9170 O   0  0  0  0  0  0  0  0  0  0  0  0
  -22.6710   -4.4480  -31.3910 C   0  0  0  0  0  0  0  0  0  0  0  0
  -23.8750   -3.6850  -32.3540 Cl  0  0  0  0  0  0  0  0  0  0  0  0
  -25.6700   -5.2530  -26.3930 C   0  0  0  0  0  0  0  0  0  0  0  0
  -26.6360   -5.0740  -27.3880 C   0  0  0  0  0  3  0  0  0  0  0  0
  -26.1230   -5.3980  -25.0650 C   0  0  0  0  0  0  0  0  0  0  0  0
  -27.9710   -5.0800  -27.1880 N   0  0  0  0  0  0  0  0  0  0  0  0
  -27.5160   -5.3870  -24.8260 C   0  0  0  0  0  0  0  0  0  0  0  0
  -25.1750   -5.3660  -23.8800 C   0  0  0  0  0  2  0  0  0  0  0  0
  -28.3780   -5.2570  -25.9160 C   0  0  0  0  0  3  0  0  0  0  0  0
  -28.1080   -5.5440  -23.4500 C   0  0  0  0  0  2  0  0  0  0  0  0
  -25.7970   -5.8460  -22.5690 C   0  0  0  0  0  2  0  0  0  0  0  0
  -27.1370   -5.1700  -22.3360 C   0  0  0  0  0  2  0  0  0  0  0  0
  1  2  1  0  0  0  0
  2  4  2  0  0  0  0
  3  2  1  0  0  0  0
  3  5  1  0  0  0  0
  6  3  1  0  0  0  0
  7  9  1  0  0  0  0
  7  1  1  0  0  0  0
  8  7  1  0  0  0  0
 10 13  1  0  0  0  0
 10  8  1  0  0  0  0
 11 15  1  0  0  0  0
 11  9  1  1  0  0  0
 11 14  1  0  0  0  0
 12 10  2  0  0  0  0
 13 11  1  0  0  0  0
 14 18  1  0  0  0  0
 15 19  1  0  0  0  0
 16 21  2  0  0  0  0
 16 12  1  0  0  0  0
 17 13  2  0  0  0  0
 18 19  1  0  0  0  0
 19 23  1  0  0  0  0
 20 15  2  0  0  0  0
 21 17  1  0  0  0  0
 22 21  1  0  0  0  0
 23 25  1  0  0  0  0
 24 26  1  0  0  0  0
 24 23  2  0  0  0  0
 25 27  2  0  0  0  0
 25 28  1  0  0  0  0
 26 29  2  0  0  0  0
 27 30  1  0  0  0  0
 28 31  1  0  0  0  0
 29 27  1  0  0  0  0
 30 32  1  0  0  0  0
 31 32  1  0  0  0  0
M  END
>  <MODEL>
1

>  <REMARK>
 VINA RESULT:    -7.720      0.000      0.000
 INTER + INTRA:          -9.835
 INTER:                  -9.074
 INTRA:                  -0.761
 UNBOUND:                -0.761
 SMILES CNC(=O)CN1Cc2ccc(Cl)cc2C2(CCN(c3cncc4c3CCCC4)C2=O)C1
 SMILES IDX 5 1 3 2 2 3 4 4 1 5 6 7 7 8 31 9 8 10 15 11 9 12 14 13 16 14
 SMILES IDX 29 15 10 16 13 17 17 18 18 19 30 20 11 21 12 22 19 23 20 24
 SMILES IDX 24 25 21 26 23 27 25 28 22 29 28 30 26 31 27 32
 H PARENT 2 6

>  <TORSDO>
F 3

$$$$
EDJ-MED-8bb691af-8
 OpenBabel07072620443D

 33 37  0  0  1  0  0  0  0  0999 V2000
  -20.0390   -6.8600  -25.9750 C   0  0  0  0  0  2  0  0  0  0  0  0
  -19.2220   -5.6920  -25.4220 C   0  0  0  0  0  0  0  0  0  0  0  0
  -17.8590   -5.8470  -25.5750 N   0  0  0  0  0  0  0  0  0  0  0  0
  -19.7520   -4.6870  -24.9560 O   0  0  0  0  0  0  0  0  0  0  0  0
  -16.9530   -4.7710  -25.2710 C   0  0  0  0  0  1  0  0  0  0  0  0
  -17.5600   -6.5530  -26.2500 H   0  0  0  0  0  0  0  0  0  0  0  0
  -20.8640   -6.4320  -27.1040 N   0  0  0  0  0  0  0  0  0  0  0  0
  -22.2160   -5.9560  -26.8230 C   0  0  0  0  0  2  0  0  0  0  0  0
  -20.2130   -5.9840  -28.2510 C   0  0  0  0  0  0  0  0  0  0  0  0
  -23.1330   -6.1070  -28.0470 C   0  0  2  0  0  0  0  0  0  0  0  0
  -21.0680   -5.4260  -29.3400 C   0  0  0  0  0  0  0  0  0  0  0  0
  -18.9910   -6.0250  -28.3770 O   0  0  0  0  0  0  0  0  0  0  0  0
  -23.4990   -7.5750  -28.3340 C   0  0  0  0  0  2  0  0  0  0  0  0
  -22.4740   -5.4710  -29.2600 C   0  0  0  0  0  0  0  0  0  0  0  0
  -24.4810   -5.5070  -27.6510 C   0  0  0  0  0  0  0  0  0  0  0  0
  -20.4400   -4.8720  -30.4650 C   0  0  0  0  0  3  0  0  0  0  0  0
  -24.6980   -7.8280  -27.4420 C   0  0  0  0  0  2  0  0  0  0  0  0
  -23.2270   -4.9620  -30.3340 C   0  0  0  0  0  3  0  0  0  0  0  0
  -25.3900   -6.5560  -27.4360 N   0  0  0  0  0  0  0  0  0  0  0  0
  -24.7000   -4.3100  -27.5330 O   0  0  0  0  0  0  0  0  0  0  0  0
  -21.2020   -4.3610  -31.5170 C   0  0  0  0  0  3  0  0  0  0  0  0
  -22.5920   -4.4090  -31.4480 C   0  0  0  0  0  0  0  0  0  0  0  0
  -23.5320   -3.7940  -32.7490 Cl  0  0  0  0  0  0  0  0  0  0  0  0
  -26.6130   -6.4070  -26.7150 C   0  0  0  0  0  0  0  0  0  0  0  0
  -27.8380   -6.5180  -27.3800 C   0  0  0  0  0  3  0  0  0  0  0  0
  -26.6460   -6.0950  -25.3260 C   0  0  0  0  0  0  0  0  0  0  0  0
  -29.0440   -6.2660  -26.8240 N   0  0  0  0  0  0  0  0  0  0  0  0
  -25.5210   -6.1030  -24.4620 C   0  0  0  0  0  3  0  0  0  0  0  0
  -27.8990   -5.8160  -24.7310 C   0  0  0  0  0  0  0  0  0  0  0  0
  -29.0420   -5.9100  -25.5240 C   0  0  0  0  0  3  0  0  0  0  0  0
  -25.6230   -5.7740  -23.1070 C   0  0  0  0  0  3  0  0  0  0  0  0
  -27.9930   -5.4780  -23.3680 C   0  0  0  0  0  3  0  0  0  0  0  0
  -26.8570   -5.4470  -22.5640 C   0  0  0  0  0  3  0  0  0  0  0  0
  1  2  1  0  0  0  0
  2  4  2  0  0  0  0
  3  2  1  0  0  0  0
  3  5  1  0  0  0  0
  6  3  1  0  0  0  0
  7  8  1  0  0  0  0
  7  1  1  0  0  0  0
  9  7  1  0  0  0  0
 10 13  1  6  0  0  0
 10 15  1  0  0  0  0
 10  8  1  0  0  0  0
 11 14  1  0  0  0  0
 11  9  1  0  0  0  0
 12  9  2  0  0  0  0
 13 17  1  0  0  0  0
 14 10  1  0  0  0  0
 15 20  2  0  0  0  0
 15 19  1  0  0  0  0
 16 11  2  0  0  0  0
 17 19  1  0  0  0  0
 18 14  2  0  0  0  0
 19 24  1  0  0  0  0
 21 22  2  0  0  0  0
 21 16  1  0  0  0  0
 22 18  1  0  0  0  0
 23 22  1  0  0  0  0
 24 26  1  0  0  0  0
 25 27  1  0  0  0  0
 25 24  2  0  0  0  0
 26 29  2  0  0  0  0
 26 28  1  0  0  0  0
 27 30  2  0  0  0  0
 28 31  2  0  0  0  0
 29 32  1  0  0  0  0
 30 29  1  0  0  0  0
 31 33  1  0  0  0  0
 32 33  2  0  0  0  0
M  END
>  <MODEL>
1

>  <REMARK>
 VINA RESULT:    -8.024      0.000      0.000
 INTER + INTRA:         -10.107
 INTER:                  -9.431
 INTRA:                  -0.676
 UNBOUND:                -0.676
 SMILES CNC(=O)CN1CC2(CCN(c3cncc4ccccc34)C2=O)c2cc(Cl)ccc2C1=O
 SMILES IDX 5 1 3 2 2 3 4 4 1 5 6 7 7 8 31 9 8 10 30 11 32 12 9 13 24 14
 SMILES IDX 22 15 29 16 10 17 25 18 11 19 23 20 28 21 26 22 27 23 12 24
 SMILES IDX 13 25 21 26 14 27 20 28 16 29 15 30 19 31 17 32 18 33
 H PARENT 2 6

>  <TORSDO>
F 3

$$$$
EDJ-MED-92e193ae-1
 OpenBabel07072620443D

 26 29  0  0  1  0  0  0  0  0999 V2000
  -19.5460   -6.6430  -34.5730 C   0  0  2  0  0  3  0  0  0  0  0  0
  -20.1940   -6.5200  -35.9590 C   0  0  0  0  0  2  0  0  0  0  0  0
  -20.0430   -7.8220  -36.7220 C   0  0  0  0  0  2  0  0  0  0  0  0
  -20.7210   -8.8910  -36.0120 N   0  0  0  0  0  0  0  0  0  0  0  0
  -20.3990   -9.0340  -34.6550 C   0  0  0  0  0  0  0  0  0  0  0  0
  -20.7290  -10.2320  -34.0060 C   0  0  0  0  0  3  0  0  0  0  0  0
  -20.4640  -10.4120  -32.6480 C   0  0  0  0  0  3  0  0  0  0  0  0
  -19.8850   -9.3800  -31.9200 C   0  0  0  0  0  0  0  0  0  0  0  0
  -19.5360   -9.6020  -30.2500 Cl  0  0  0  0  0  0  0  0  0  0  0  0
  -19.5880   -8.1650  -32.5360 C   0  0  0  0  0  3  0  0  0  0  0  0
  -19.8760   -7.9670  -33.8990 C   0  0  0  0  0  0  0  0  0  0  0  0
  -20.7220   -9.7800  -36.5080 H   0  0  0  0  0  0  0  0  0  0  0  0
  -19.9420   -5.3970  -33.7660 C   0  0  0  0  0  0  0  0  0  0  0  0
  -19.2080   -4.4230  -33.6500 O   0  0  0  0  0  0  0  0  0  0  0  0
  -21.1940   -5.5310  -33.1770 N   0  0  0  0  0  0  0  0  0  0  0  0
  -21.6870   -6.3900  -33.3680 H   0  0  0  0  0  0  0  0  0  0  0  0
  -21.8650   -4.5930  -32.3440 C   0  0  0  0  0  0  0  0  0  0  0  0
  -22.8740   -3.7500  -32.8180 C   0  0  0  0  0  3  0  0  0  0  0  0
  -21.5090   -4.4880  -30.9640 C   0  0  0  0  0  0  0  0  0  0  0  0
  -23.5360   -2.8410  -32.0630 N   0  0  0  0  0  0  0  0  0  0  0  0
  -20.5130   -5.2610  -30.3090 C   0  0  0  0  0  3  0  0  0  0  0  0
  -22.1970   -3.5420  -30.1670 C   0  0  0  0  0  0  0  0  0  0  0  0
  -23.1830   -2.7610  -30.7670 C   0  0  0  0  0  3  0  0  0  0  0  0
  -20.2200   -5.0990  -28.9500 C   0  0  0  0  0  3  0  0  0  0  0  0
  -21.8960   -3.3870  -28.8010 C   0  0  0  0  0  3  0  0  0  0  0  0
  -20.9120   -4.1630  -28.1960 C   0  0  0  0  0  3  0  0  0  0  0  0
  1 11  1  0  0  0  0
  1 13  1  1  0  0  0
  2  1  1  0  0  0  0
  3  4  1  0  0  0  0
  3  2  1  0  0  0  0
  4  5  1  0  0  0  0
  5  6  2  0  0  0  0
  5 11  1  0  0  0  0
  6  7  1  0  0  0  0
  7  8  2  0  0  0  0
  8  9  1  0  0  0  0
 10  8  1  0  0  0  0
 11 10  2  0  0  0  0
 12  4  1  0  0  0  0
 13 14  2  0  0  0  0
 13 15  1  0  0  0  0
 15 17  1  0  0  0  0
 16 15  1  0  0  0  0
 17 19  1  0  0  0  0
 18 17  2  0  0  0  0
 18 20  1  0  0  0  0
 19 21  2  0  0  0  0
 19 22  1  0  0  0  0
 20 23  2  0  0  0  0
 21 24  1  0  0  0  0
 22 25  2  0  0  0  0
 23 22  1  0  0  0  0
 24 26  2  0  0  0  0
 25 26  1  0  0  0  0
M  END
>  <MODEL>
1

>  <REMARK>
 VINA RESULT:    -7.426      0.000      0.000
 INTER + INTRA:          -8.928
 INTER:                  -8.294
 INTRA:                  -0.633
 UNBOUND:                -0.633
 SMILES O=C(Nc1cncc2ccccc12)[C@@H]1CCNc2ccc(Cl)cc21
 SMILES IDX 14 1 15 2 16 3 17 4 18 5 19 6 20 7 21 8 22 9 23 10 24 11
 SMILES IDX 2 13 1 14 3 15 4 17 5 18 13 19 6 20 12 21 8 22 7 23 11 24
 SMILES IDX 9 25 10 26
 H PARENT 17 12 3 16

>  <TORSDO>
F 2

$$$$
EDJ-MED-976a33d5-1
 OpenBabel07072620443D

 35 40  0  0  1  0  0  0  0  0999 V2000
  -19.9200   -7.0650  -26.4690 C   0  0  0  0  0  0  0  0  0  0  0  0
  -19.1240   -8.3600  -26.5790 C   0  0  0  0  0  2  0  0  0  0  0  0
  -20.3080   -8.3020  -25.6700 C   0  0  0  0  0  2  0  0  0  0  0  0
  -19.2930   -5.9120  -25.7150 C   0  0  0  0  0  0  0  0  0  0  0  0
  -17.9250   -5.8500  -25.8320 N   0  0  0  0  0  0  0  0  0  0  0  0
  -19.9960   -5.0900  -25.1420 O   0  0  0  0  0  0  0  0  0  0  0  0
  -17.1840   -4.7140  -25.3560 C   0  0  0  0  0  1  0  0  0  0  0  0
  -17.5170   -6.4290  -26.5670 H   0  0  0  0  0  0  0  0  0  0  0  0
  -20.7430   -6.6460  -27.5940 N   0  0  0  0  0  0  0  0  0  0  0  0
  -22.1850   -6.8310  -27.4970 C   0  0  0  0  0  2  0  0  0  0  0  0
  -20.1700   -5.9500  -28.6520 C   0  0  0  0  0  0  0  0  0  0  0  0
  -22.9590   -5.5890  -27.9590 C   0  0  1  0  0  0  0  0  0  0  0  0
  -21.1100   -5.3840  -29.6610 C   0  0  0  0  0  0  0  0  0  0  0  0
  -18.9610   -5.7540  -28.7550 O   0  0  0  0  0  0  0  0  0  0  0  0
  -22.8400   -4.4010  -26.9900 C   0  0  0  0  0  2  0  0  0  0  0  0
  -22.4740   -5.2010  -29.3460 C   0  0  0  0  0  0  0  0  0  0  0  0
  -24.4360   -5.9440  -27.8180 C   0  0  0  0  0  0  0  0  0  0  0  0
  -20.6070   -4.9940  -30.9080 C   0  0  0  0  0  3  0  0  0  0  0  0
  -23.8390   -4.7150  -25.8930 C   0  0  0  0  0  2  0  0  0  0  0  0
  -23.3110   -4.6120  -30.3080 C   0  0  0  0  0  3  0  0  0  0  0  0
  -24.8640   -5.4900  -26.5620 N   0  0  0  0  0  0  0  0  0  0  0  0
  -25.0870   -6.5350  -28.6650 O   0  0  0  0  0  0  0  0  0  0  0  0
  -21.4570   -4.4250  -31.8570 C   0  0  0  0  0  3  0  0  0  0  0  0
  -22.8030   -4.2370  -31.5540 C   0  0  0  0  0  0  0  0  0  0  0  0
  -23.8460   -3.5240  -32.7220 Cl  0  0  0  0  0  0  0  0  0  0  0  0
  -26.1380   -5.7340  -25.9700 C   0  0  0  0  0  0  0  0  0  0  0  0
  -27.1410   -4.7660  -26.1090 C   0  0  0  0  0  3  0  0  0  0  0  0
  -26.4690   -6.9130  -25.2340 C   0  0  0  0  0  0  0  0  0  0  0  0
  -28.4050   -4.8740  -25.6480 N   0  0  0  0  0  0  0  0  0  0  0  0
  -25.5690   -7.9440  -24.8640 C   0  0  0  0  0  3  0  0  0  0  0  0
  -27.8000   -7.0520  -24.7630 C   0  0  0  0  0  0  0  0  0  0  0  0
  -28.7040   -6.0190  -25.0050 C   0  0  0  0  0  3  0  0  0  0  0  0
  -25.9750   -9.0740  -24.1440 C   0  0  0  0  0  3  0  0  0  0  0  0
  -28.2030   -8.1930  -24.0430 C   0  0  0  0  0  3  0  0  0  0  0  0
  -27.2970   -9.2040  -23.7450 C   0  0  0  0  0  3  0  0  0  0  0  0
  1  4  1  0  0  0  0
  1  3  1  0  0  0  0
  2  1  1  0  0  0  0
  2  3  1  0  0  0  0
  4  6  2  0  0  0  0
  5  4  1  0  0  0  0
  5  7  1  0  0  0  0
  8  5  1  0  0  0  0
  9 10  1  0  0  0  0
  9  1  1  0  0  0  0
 11  9  1  0  0  0  0
 12 17  1  0  0  0  0
 12 10  1  1  0  0  0
 12 15  1  0  0  0  0
 13 16  1  0  0  0  0
 13 11  1  0  0  0  0
 14 11  2  0  0  0  0
 15 19  1  0  0  0  0
 16 12  1  0  0  0  0
 17 21  1  0  0  0  0
 18 13  2  0  0  0  0
 20 16  2  0  0  0  0
 21 26  1  0  0  0  0
 21 19  1  0  0  0  0
 22 17  2  0  0  0  0
 23 24  2  0  0  0  0
 23 18  1  0  0  0  0
 24 20  1  0  0  0  0
 25 24  1  0  0  0  0
 26 28  1  0  0  0  0
 27 26  2  0  0  0  0
 27 29  1  0  0  0  0
 28 30  2  0  0  0  0
 28 31  1  0  0  0  0
 29 32  2  0  0  0  0
 30 33  1  0  0  0  0
 31 34  2  0  0  0  0
 32 31  1  0  0  0  0
 33 35  2  0  0  0  0
 34 35  1  0  0  0  0
M  END
>  <MODEL>
1

>  <REMARK>
 VINA RESULT:    -8.009      0.000      0.000
 INTER + INTRA:          -9.996
 INTER:                  -9.414
 INTRA:                  -0.582
 UNBOUND:                -0.582
 SMILES CNC(=O)C1(N2CC3(CCN(c4cncc5ccccc45)C3=O)c3cc(Cl)ccc3C2=O)CC1
 SMILES IDX 5 1 33 2 34 3 3 4 2 5 4 6 1 7 6 9 7 10 31 11 8 12 30 13
 SMILES IDX 32 14 9 15 24 16 22 17 29 18 10 19 25 20 11 21 23 22 28 23
 SMILES IDX 26 24 27 25 12 26 13 27 21 28 14 29 20 30 16 31 15 32 19 33
 SMILES IDX 17 34 18 35
 H PARENT 2 8

>  <TORSDO>
F 3

$$$$
EDJ-MED-a364e151-1
 OpenBabel07072620443D

 22 24  0  0  0  0  0  0  0  0999 V2000
  -20.2080   -6.3140  -35.1430 C   0  0  0  0  0  2  0  0  0  0  0  0
  -20.1260   -5.3490  -33.9650 C   0  0  0  0  0  0  0  0  0  0  0  0
  -19.3690   -4.3840  -34.0110 O   0  0  0  0  0  0  0  0  0  0  0  0
  -21.0020   -5.6470  -32.9350 N   0  0  0  0  0  0  0  0  0  0  0  0
  -21.5280   -6.5010  -33.0410 H   0  0  0  0  0  0  0  0  0  0  0  0
  -21.1740   -4.9430  -31.7180 C   0  0  0  0  0  0  0  0  0  0  0  0
  -20.2990   -5.0590  -30.6360 C   0  0  0  0  0  3  0  0  0  0  0  0
  -22.2780   -4.0850  -31.5530 C   0  0  0  0  0  0  0  0  0  0  0  0
  -20.4490   -4.4290  -29.4420 N   0  0  0  0  0  0  0  0  0  0  0  0
  -22.4600   -3.4370  -30.3130 C   0  0  0  0  0  0  0  0  0  0  0  0
  -23.3550   -3.8450  -32.5860 C   0  0  0  0  0  2  0  0  0  0  0  0
  -21.5310   -3.6430  -29.3040 C   0  0  0  0  0  3  0  0  0  0  0  0
  -23.6820   -2.5910  -30.0940 C   0  0  0  0  0  2  0  0  0  0  0  0
  -23.7640   -2.3690  -32.6520 C   0  0  0  0  0  2  0  0  0  0  0  0
  -23.9390   -1.6830  -31.2930 C   0  0  0  0  0  2  0  0  0  0  0  0
  -19.8760   -7.7510  -34.8080 C   0  0  0  0  0  0  0  0  0  0  0  0
  -20.4650   -8.8040  -35.5230 C   0  0  0  0  0  3  0  0  0  0  0  0
  -18.9720   -8.0490  -33.7780 C   0  0  0  0  0  3  0  0  0  0  0  0
  -20.1680  -10.1310  -35.2040 C   0  0  0  0  0  3  0  0  0  0  0  0
  -18.6780   -9.3770  -33.4640 C   0  0  0  0  0  0  0  0  0  0  0  0
  -19.2750  -10.4180  -34.1720 C   0  0  0  0  0  3  0  0  0  0  0  0
  -17.5760   -9.7320  -32.1920 Cl  0  0  0  0  0  0  0  0  0  0  0  0
  1 16  1  0  0  0  0
  1  2  1  0  0  0  0
  2  4  1  0  0  0  0
  3  2  2  0  0  0  0
  4  6  1  0  0  0  0
  5  4  1  0  0  0  0
  6  8  2  0  0  0  0
  6  7  1  0  0  0  0
  7  9  2  0  0  0  0
  8 10  1  0  0  0  0
  9 12  1  0  0  0  0
 10 13  1  0  0  0  0
 10 12  2  0  0  0  0
 11  8  1  0  0  0  0
 14 11  1  0  0  0  0
 14 15  1  0  0  0  0
 15 13  1  0  0  0  0
 16 18  1  0  0  0  0
 17 19  1  0  0  0  0
 17 16  2  0  0  0  0
 18 20  2  0  0  0  0
 19 21  2  0  0  0  0
 20 22  1  0  0  0  0
 21 20  1  0  0  0  0
M  END
>  <MODEL>
1

>  <REMARK>
 VINA RESULT:    -7.155      0.000      0.000
 INTER + INTRA:          -8.811
 INTER:                  -8.410
 INTRA:                  -0.402
 UNBOUND:                -0.402
 SMILES O=C(Cc1cccc(Cl)c1)Nc1cncc2c1CCCC2
 SMILES IDX 3 1 2 2 1 3 11 4 12 6 13 7 17 8 14 9 16 10 18 11 15 12 21 13
 SMILES IDX 19 14 20 15 4 16 5 17 10 18 6 19 8 20 7 21 9 22
 H PARENT 11 5

>  <TORSDO>
F 3

$$$$
EDJ-MED-d08626de-3
 OpenBabel07072620443D

 28 31  0  0  1  0  0  0  0  0999 V2000
  -21.8190   -5.5780  -26.9350 C   0  0  2  0  0  0  0  0  0  0  0  0
  -22.6810   -6.7910  -27.3350 C   0  0  0  0  0  2  0  0  0  0  0  0
  -22.6360   -7.8230  -26.2280 C   0  0  0  0  0  2  0  0  0  0  0  0
  -21.3240   -8.3670  -26.0930 O   0  0  0  0  0  0  0  0  0  0  0  0
  -20.3250   -7.4330  -26.0280 C   0  0  0  0  0  0  0  0  0  0  0  0
  -19.0990   -7.9210  -25.5630 C   0  0  0  0  0  3  0  0  0  0  0  0
  -18.0050   -7.0690  -25.4310 C   0  0  0  0  0  0  0  0  0  0  0  0
  -16.5260   -7.7360  -24.8370 Cl  0  0  0  0  0  0  0  0  0  0  0  0
  -18.1380   -5.7210  -25.7700 C   0  0  0  0  0  0  0  0  0  0  0  0
  -16.8390   -4.5930  -25.6160 Cl  0  0  0  0  0  0  0  0  0  0  0  0
  -19.3630   -5.2390  -26.2510 C   0  0  0  0  0  3  0  0  0  0  0  0
  -20.4740   -6.0920  -26.4100 C   0  0  0  0  0  0  0  0  0  0  0  0
  -22.3640   -4.8130  -25.8380 O   0  0  0  0  0  0  0  0  0  0  0  0
  -23.6570   -4.2520  -26.0420 C   0  0  0  0  0  1  0  0  0  0  0  0
  -21.6210   -4.6680  -28.2010 C   0  0  0  0  0  0  0  0  0  0  0  0
  -20.8670   -3.7010  -28.2050 O   0  0  0  0  0  0  0  0  0  0  0  0
  -22.4110   -5.0790  -29.2670 N   0  0  0  0  0  0  0  0  0  0  0  0
  -22.9520   -5.9150  -29.0770 H   0  0  0  0  0  0  0  0  0  0  0  0
  -22.5190   -4.5020  -30.5560 C   0  0  0  0  0  0  0  0  0  0  0  0
  -23.3540   -3.4170  -30.8280 C   0  0  0  0  0  3  0  0  0  0  0  0
  -21.7500   -5.0350  -31.6350 C   0  0  0  0  0  0  0  0  0  0  0  0
  -23.4830   -2.8300  -32.0400 N   0  0  0  0  0  0  0  0  0  0  0  0
  -20.8580   -6.1370  -31.5410 C   0  0  0  0  0  3  0  0  0  0  0  0
  -21.8780   -4.4290  -32.9080 C   0  0  0  0  0  0  0  0  0  0  0  0
  -22.7470   -3.3480  -33.0420 C   0  0  0  0  0  3  0  0  0  0  0  0
  -20.1380   -6.6040  -32.6460 C   0  0  0  0  0  3  0  0  0  0  0  0
  -21.1480   -4.9060  -34.0120 C   0  0  0  0  0  3  0  0  0  0  0  0
  -20.2830   -5.9880  -33.8820 C   0  0  0  0  0  3  0  0  0  0  0  0
  1 15  1  6  0  0  0
  1 12  1  0  0  0  0
  1 13  1  0  0  0  0
  2  1  1  0  0  0  0
  2  3  1  0  0  0  0
  3  4  1  0  0  0  0
  4  5  1  0  0  0  0
  5  6  1  0  0  0  0
  6  7  2  0  0  0  0
  7  8  1  0  0  0  0
  9 10  1  0  0  0  0
  9  7  1  0  0  0  0
 11  9  2  0  0  0  0
 12 11  1  0  0  0  0
 12  5  2  0  0  0  0
 14 13  1  0  0  0  0
 16 15  2  0  0  0  0
 17 18  1  0  0  0  0
 17 15  1  0  0  0  0
 19 17  1  0  0  0  0
 20 19  1  0  0  0  0
 21 23  1  0  0  0  0
 21 19  2  0  0  0  0
 22 20  2  0  0  0  0
 24 21  1  0  0  0  0
 25 24  2  0  0  0  0
 25 22  1  0  0  0  0
 26 23  2  0  0  0  0
 27 28  2  0  0  0  0
 27 24  1  0  0  0  0
 28 26  1  0  0  0  0
M  END
>  <MODEL>
1

>  <REMARK>
 VINA RESULT:    -7.514      0.000      0.000
 INTER + INTRA:          -9.267
 INTER:                  -8.832
 INTRA:                  -0.435
 UNBOUND:                -0.435
 SMILES CO[C@]1(C(=O)Nc2cncc3ccccc23)CCOc2cc(Cl)c(Cl)cc21
 SMILES IDX 3 1 17 2 18 3 19 4 20 5 21 6 22 7 23 8 24 9 25 10 26 11
 SMILES IDX 27 12 2 13 1 14 4 15 5 16 6 17 7 19 8 20 16 21 9 22 15 23
 SMILES IDX 11 24 10 25 14 26 12 27 13 28
 H PARENT 6 18

>  <TORSDO>
F 3

$$$$
EDJ-MED-d08626de-4
 OpenBabel07072620443D

 28 31  0  0  1  0  0  0  0  0999 V2000
  -20.2760   -5.2180  -26.6570 C   0  0  1  0  0  0  0  0  0  0  0  0
  -19.3250   -4.0210  -26.8940 C   0  0  0  0  0  2  0  0  0  0  0  0
  -18.2680   -3.9780  -25.8080 C   0  0  0  0  0  2  0  0  0  0  0  0
  -17.4400   -5.1410  -25.8850 O   0  0  0  0  0  0  0  0  0  0  0  0
  -18.1500   -6.3020  -25.7480 C   0  0  0  0  0  0  0  0  0  0  0  0
  -17.4390   -7.4080  -25.2830 C   0  0  0  0  0  3  0  0  0  0  0  0
  -18.0850   -8.6310  -25.0940 C   0  0  0  0  0  0  0  0  0  0  0  0
  -17.1440   -9.9560  -24.5090 Cl  0  0  0  0  0  0  0  0  0  0  0  0
  -19.4480   -8.7470  -25.3780 C   0  0  0  0  0  0  0  0  0  0  0  0
  -20.3190  -10.2240  -25.1640 Cl  0  0  0  0  0  0  0  0  0  0  0  0
  -20.1530   -7.6400  -25.8660 C   0  0  0  0  0  3  0  0  0  0  0  0
  -19.5050   -6.4080  -26.0780 C   0  0  0  0  0  0  0  0  0  0  0  0
  -21.1530   -4.8650  -25.5880 O   0  0  0  0  0  0  0  0  0  0  0  0
  -22.4280   -4.3580  -25.9510 C   0  0  0  0  0  1  0  0  0  0  0  0
  -20.8640   -5.6380  -28.0790 C   0  0  0  0  0  0  0  0  0  0  0  0
  -21.5460   -6.6490  -28.2270 O   0  0  0  0  0  0  0  0  0  0  0  0
  -20.5460   -4.7490  -29.1030 N   0  0  0  0  0  0  0  0  0  0  0  0
  -19.9320   -3.9870  -28.8550 H   0  0  0  0  0  0  0  0  0  0  0  0
  -20.9270   -4.8190  -30.4700 C   0  0  0  0  0  0  0  0  0  0  0  0
  -20.3480   -5.7140  -31.3720 C   0  0  0  0  0  3  0  0  0  0  0  0
  -21.9500   -3.9510  -30.9610 C   0  0  0  0  0  0  0  0  0  0  0  0
  -20.6890   -5.8210  -32.6770 N   0  0  0  0  0  0  0  0  0  0  0  0
  -22.6450   -2.9770  -30.1930 C   0  0  0  0  0  3  0  0  0  0  0  0
  -22.3140   -4.0530  -32.3260 C   0  0  0  0  0  0  0  0  0  0  0  0
  -21.6560   -4.9930  -33.1180 C   0  0  0  0  0  3  0  0  0  0  0  0
  -23.6360   -2.1610  -30.7490 C   0  0  0  0  0  3  0  0  0  0  0  0
  -23.3130   -3.2290  -32.8750 C   0  0  0  0  0  3  0  0  0  0  0  0
  -23.9710   -2.2880  -32.0890 C   0  0  0  0  0  3  0  0  0  0  0  0
  1 15  1  6  0  0  0
  1 12  1  0  0  0  0
  1 13  1  0  0  0  0
  2  1  1  0  0  0  0
  2  3  1  0  0  0  0
  4  3  1  0  0  0  0
  4  5  1  0  0  0  0
  5  6  1  0  0  0  0
  6  7  2  0  0  0  0
  7  8  1  0  0  0  0
  9 10  1  0  0  0  0
  9  7  1  0  0  0  0
 11  9  2  0  0  0  0
 12 11  1  0  0  0  0
 12  5  2  0  0  0  0
 14 13  1  0  0  0  0
 16 15  2  0  0  0  0
 17 18  1  0  0  0  0
 17 15  1  0  0  0  0
 19 17  1  0  0  0  0
 20 19  2  0  0  0  0
 21 19  1  0  0  0  0
 21 23  1  0  0  0  0
 22 20  1  0  0  0  0
 24 21  2  0  0  0  0
 25 22  2  0  0  0  0
 25 24  1  0  0  0  0
 26 23  2  0  0  0  0
 27 24  1  0  0  0  0
 27 28  2  0  0  0  0
 28 26  1  0  0  0  0
M  END
>  <MODEL>
1

>  <REMARK>
 VINA RESULT:    -7.776      0.000      0.000
 INTER + INTRA:          -9.492
 INTER:                  -9.140
 INTRA:                  -0.352
 UNBOUND:                -0.352
 SMILES CO[C@@]1(C(=O)Nc2cncc3ccccc23)CCOc2cc(Cl)c(Cl)cc21
 SMILES IDX 3 1 17 2 18 3 19 4 20 5 21 6 22 7 23 8 24 9 25 10 26 11
 SMILES IDX 27 12 2 13 1 14 4 15 5 16 6 17 7 19 8 20 16 21 9 22 15 23
 SMILES IDX 11 24 10 25 14 26 12 27 13 28
 H PARENT 6 18

>  <TORSDO>
F 3

$$$$
EDJ-MED-d08626de-5
 OpenBabel07072620443D

 28 31  0  0  1  0  0  0  0  0999 V2000
  -20.7690   -5.4670  -26.4910 C   0  0  1  0  0  0  0  0  0  0  0  0
  -20.0410   -6.7840  -26.1710 C   0  0  0  0  0  2  0  0  0  0  0  0
  -20.6630   -7.9350  -26.9430 C   0  0  0  0  0  2  0  0  0  0  0  0
  -22.0420   -8.1400  -26.6400 O   0  0  0  0  0  0  0  0  0  0  0  0
  -22.7880   -7.0160  -26.4240 C   0  0  0  0  0  0  0  0  0  0  0  0
  -24.1610   -7.2470  -26.2850 C   0  0  0  0  0  3  0  0  0  0  0  0
  -25.0350   -6.1960  -26.0170 C   0  0  0  0  0  0  0  0  0  0  0  0
  -26.7210   -6.5470  -25.8760 Cl  0  0  0  0  0  0  0  0  0  0  0  0
  -24.5310   -4.9030  -25.8630 C   0  0  0  0  0  0  0  0  0  0  0  0
  -25.5330   -3.5410  -25.4990 Cl  0  0  0  0  0  0  0  0  0  0  0  0
  -23.1570   -4.6750  -25.9900 C   0  0  0  0  0  3  0  0  0  0  0  0
  -22.2660   -5.7230  -26.2980 C   0  0  0  0  0  0  0  0  0  0  0  0
  -20.3980   -4.4170  -25.5750 O   0  0  0  0  0  0  0  0  0  0  0  0
  -19.1850   -4.6280  -24.8600 C   0  0  0  0  0  1  0  0  0  0  0  0
  -20.4770   -5.0050  -27.9680 C   0  0  0  0  0  0  0  0  0  0  0  0
  -19.4050   -4.4940  -28.2770 O   0  0  0  0  0  0  0  0  0  0  0  0
  -21.5580   -5.1890  -28.8190 N   0  0  0  0  0  0  0  0  0  0  0  0
  -22.4480   -5.2240  -28.3300 H   0  0  0  0  0  0  0  0  0  0  0  0
  -21.6420   -4.9520  -30.2130 C   0  0  0  0  0  0  0  0  0  0  0  0
  -20.8560   -5.7940  -31.0150 C   0  0  0  0  0  3  0  0  0  0  0  0
  -22.4070   -3.9490  -30.8700 C   0  0  0  0  0  0  0  0  0  0  0  0
  -20.8510   -5.8080  -32.3640 N   0  0  0  0  0  0  0  0  0  0  0  0
  -23.1110   -2.8870  -30.2370 C   0  0  0  0  0  3  0  0  0  0  0  0
  -22.4400   -3.9650  -32.2890 C   0  0  0  0  0  0  0  0  0  0  0  0
  -21.6700   -4.9170  -32.9610 C   0  0  0  0  0  3  0  0  0  0  0  0
  -23.8940   -1.9750  -30.9510 C   0  0  0  0  0  3  0  0  0  0  0  0
  -23.2210   -3.0380  -33.0040 C   0  0  0  0  0  3  0  0  0  0  0  0
  -23.9640   -2.0620  -32.3350 C   0  0  0  0  0  3  0  0  0  0  0  0
  1 15  1  6  0  0  0
  1 12  1  0  0  0  0
  1  2  1  0  0  0  0
  1 13  1  0  0  0  0
  3  4  1  0  0  0  0
  3  2  1  0  0  0  0
  4  5  1  0  0  0  0
  5 12  2  0  0  0  0
  5  6  1  0  0  0  0
  6  7  2  0  0  0  0
  7  8  1  0  0  0  0
  7  9  1  0  0  0  0
  9 10  1  0  0  0  0
 11  9  2  0  0  0  0
 12 11  1  0  0  0  0
 13 14  1  0  0  0  0
 16 15  2  0  0  0  0
 17 18  1  0  0  0  0
 17 15  1  0  0  0  0
 19 17  1  0  0  0  0
 20 19  2  0  0  0  0
 21 23  1  0  0  0  0
 21 19  1  0  0  0  0
 22 20  1  0  0  0  0
 24 21  2  0  0  0  0
 25 22  2  0  0  0  0
 25 24  1  0  0  0  0
 26 23  2  0  0  0  0
 27 28  2  0  0  0  0
 27 24  1  0  0  0  0
 28 26  1  0  0  0  0
M  END
>  <MODEL>
1

>  <REMARK>
 VINA RESULT:    -7.265      0.000      0.000
 INTER + INTRA:          -9.132
 INTER:                  -8.539
 INTRA:                  -0.593
 UNBOUND:                -0.593
 SMILES COC1(C(=O)Nc2cncc3ccccc23)CCOc2cc(Cl)c(Cl)cc21
 SMILES IDX 3 1 17 2 18 3 19 4 20 5 21 6 22 7 23 8 24 9 25 10 26 11
 SMILES IDX 27 12 2 13 1 14 4 15 5 16 6 17 7 19 8 20 16 21 9 22 15 23
 SMILES IDX 11 24 10 25 14 26 12 27 13 28
 H PARENT 6 18

>  <TORSDO>
F 3

$$$$
EDJ-MED-e4b030d8-11
 OpenBabel07072620443D

 26 29  0  0  1  0  0  0  0  0999 V2000
  -22.8410   -4.3940  -25.9440 C   0  0  0  0  0  1  0  0  0  0  0  0
  -21.3690   -4.7210  -26.1930 C   0  0  1  0  0  3  0  0  0  0  0  0
  -20.5400   -4.4640  -24.9390 C   0  0  0  0  0  2  0  0  0  0  0  0
  -19.1480   -4.6460  -25.2090 O   0  0  0  0  0  0  0  0  0  0  0  0
  -18.8510   -5.8980  -25.6720 C   0  0  0  0  0  0  0  0  0  0  0  0
  -17.5450   -6.3390  -25.4630 C   0  0  0  0  0  3  0  0  0  0  0  0
  -17.1600   -7.6100  -25.8880 C   0  0  0  0  0  3  0  0  0  0  0  0
  -18.0880   -8.4330  -26.5230 C   0  0  0  0  0  0  0  0  0  0  0  0
  -17.6200  -10.0060  -27.0390 Cl  0  0  0  0  0  0  0  0  0  0  0  0
  -19.3890   -7.9860  -26.7520 C   0  0  0  0  0  3  0  0  0  0  0  0
  -19.7790   -6.6980  -26.3460 C   0  0  0  0  0  0  0  0  0  0  0  0
  -21.1810   -6.1890  -26.6330 C   0  0  2  0  0  3  0  0  0  0  0  0
  -21.5590   -6.3310  -28.1160 C   0  0  0  0  0  0  0  0  0  0  0  0
  -22.2840   -7.2530  -28.4800 O   0  0  0  0  0  0  0  0  0  0  0  0
  -21.0390   -5.3370  -28.9270 N   0  0  0  0  0  0  0  0  0  0  0  0
  -20.4140   -4.6840  -28.4760 H   0  0  0  0  0  0  0  0  0  0  0  0
  -21.2300   -5.1660  -30.3240 C   0  0  0  0  0  0  0  0  0  0  0  0
  -20.5990   -5.9700  -31.2750 C   0  0  0  0  0  3  0  0  0  0  0  0
  -22.1060   -4.1420  -30.7980 C   0  0  0  0  0  0  0  0  0  0  0  0
  -20.7600   -5.8520  -32.6140 N   0  0  0  0  0  0  0  0  0  0  0  0
  -22.8260   -3.2300  -29.9790 C   0  0  0  0  0  3  0  0  0  0  0  0
  -22.2820   -4.0080  -32.1970 C   0  0  0  0  0  0  0  0  0  0  0  0
  -21.5910   -4.8800  -33.0360 C   0  0  0  0  0  3  0  0  0  0  0  0
  -23.6670   -2.2520  -30.5190 C   0  0  0  0  0  3  0  0  0  0  0  0
  -23.1310   -3.0210  -32.7290 C   0  0  0  0  0  3  0  0  0  0  0  0
  -23.8200   -2.1480  -31.8940 C   0  0  0  0  0  3  0  0  0  0  0  0
  2  1  1  1  0  0  0
  2  3  1  0  0  0  0
  4  3  1  0  0  0  0
  5  6  1  0  0  0  0
  5  4  1  0  0  0  0
  7  6  2  0  0  0  0
  8  7  1  0  0  0  0
  9  8  1  0  0  0  0
 10  8  2  0  0  0  0
 10 11  1  0  0  0  0
 11  5  2  0  0  0  0
 12 13  1  6  0  0  0
 12 11  1  0  0  0  0
 12  2  1  0  0  0  0
 14 13  2  0  0  0  0
 15 16  1  0  0  0  0
 15 13  1  0  0  0  0
 17 15  1  0  0  0  0
 18 17  2  0  0  0  0
 19 17  1  0  0  0  0
 19 21  1  0  0  0  0
 20 18  1  0  0  0  0
 22 19  2  0  0  0  0
 23 20  2  0  0  0  0
 23 22  1  0  0  0  0
 24 21  2  0  0  0  0
 25 22  1  0  0  0  0
 25 26  2  0  0  0  0
 26 24  1  0  0  0  0
M  END
>  <MODEL>
1

>  <REMARK>
 VINA RESULT:    -7.315      0.000      0.000
 INTER + INTRA:          -9.053
 INTER:                  -8.170
 INTRA:                  -0.883
 UNBOUND:                -0.883
 SMILES C[C@H]1COc2ccc(Cl)cc2[C@@H]1C(=O)Nc1cncc2ccccc12
 SMILES IDX 1 1 2 2 3 3 4 4 5 5 6 6 7 7 8 8 9 9 10 10 11 11 12 12 13 13
 SMILES IDX 14 14 15 15 16 17 17 18 25 19 18 20 24 21 20 22 19 23 23 24
 SMILES IDX 21 25 22 26
 H PARENT 15 16

>  <TORSDO>
F 2

$$$$
EDJ-MED-e4b030d8-2
 OpenBabel07072620443D

 26 29  0  0  1  0  0  0  0  0999 V2000
  -21.9570   -4.3020  -27.0110 C   0  0  0  0  0  1  0  0  0  0  0  0
  -20.8040   -3.9650  -27.9530 C   0  0  2  0  0  3  0  0  0  0  0  0
  -20.6030   -4.9670  -29.0830 C   0  0  0  0  0  2  0  0  0  0  0  0
  -20.1290   -6.3210  -28.5500 C   0  0  2  0  0  3  0  0  0  0  0  0
  -19.1240   -6.1480  -27.4300 C   0  0  0  0  0  0  0  0  0  0  0  0
  -18.4070   -7.2500  -26.9310 C   0  0  0  0  0  3  0  0  0  0  0  0
  -17.4670   -7.0800  -25.9130 C   0  0  0  0  0  0  0  0  0  0  0  0
  -16.5850   -8.4350  -25.3290 Cl  0  0  0  0  0  0  0  0  0  0  0  0
  -17.2350   -5.8180  -25.3730 C   0  0  0  0  0  3  0  0  0  0  0  0
  -17.9620   -4.7250  -25.8430 C   0  0  0  0  0  3  0  0  0  0  0  0
  -18.9140   -4.8920  -26.8500 C   0  0  0  0  0  0  0  0  0  0  0  0
  -19.5920   -3.7610  -27.2160 O   0  0  0  0  0  0  0  0  0  0  0  0
  -19.6060   -7.1580  -29.7240 C   0  0  0  0  0  0  0  0  0  0  0  0
  -18.6540   -7.9170  -29.5630 O   0  0  0  0  0  0  0  0  0  0  0  0
  -20.3190   -6.9910  -30.9000 N   0  0  0  0  0  0  0  0  0  0  0  0
  -21.0460   -6.2900  -30.8750 H   0  0  0  0  0  0  0  0  0  0  0  0
  -20.1090   -7.6390  -32.1450 C   0  0  0  0  0  0  0  0  0  0  0  0
  -19.8830   -9.0140  -32.2500 C   0  0  0  0  0  3  0  0  0  0  0  0
  -20.1350   -6.8770  -33.3530 C   0  0  0  0  0  0  0  0  0  0  0  0
  -19.6900   -9.6760  -33.4150 N   0  0  0  0  0  0  0  0  0  0  0  0
  -20.3440   -5.4740  -33.4360 C   0  0  0  0  0  3  0  0  0  0  0  0
  -19.9330   -7.5600  -34.5770 C   0  0  0  0  0  0  0  0  0  0  0  0
  -19.7190   -8.9360  -34.5390 C   0  0  0  0  0  3  0  0  0  0  0  0
  -20.3540   -4.7970  -34.6610 C   0  0  0  0  0  3  0  0  0  0  0  0
  -19.9470   -6.8700  -35.8030 C   0  0  0  0  0  3  0  0  0  0  0  0
  -20.1570   -5.4950  -35.8440 C   0  0  0  0  0  3  0  0  0  0  0  0
  2 12  1  0  0  0  0
  2  1  1  1  0  0  0
  3  4  1  0  0  0  0
  3  2  1  0  0  0  0
  4 13  1  6  0  0  0
  4  5  1  0  0  0  0
  5  6  2  0  0  0  0
  5 11  1  0  0  0  0
  6  7  1  0  0  0  0
  7  9  2  0  0  0  0
  7  8  1  0  0  0  0
 10  9  1  0  0  0  0
 11 10  2  0  0  0  0
 12 11  1  0  0  0  0
 13 14  2  0  0  0  0
 15 16  1  0  0  0  0
 15 13  1  0  0  0  0
 17 15  1  0  0  0  0
 18 17  1  0  0  0  0
 19 17  2  0  0  0  0
 20 18  2  0  0  0  0
 21 19  1  0  0  0  0
 22 23  2  0  0  0  0
 22 19  1  0  0  0  0
 23 20  1  0  0  0  0
 24 21  2  0  0  0  0
 25 22  1  0  0  0  0
 26 25  2  0  0  0  0
 26 24  1  0  0  0  0
M  END
>  <MODEL>
1

>  <REMARK>
 VINA RESULT:    -8.031      0.000      0.000
 INTER + INTRA:          -8.752
 INTER:                  -8.970
 INTRA:                   0.218
 UNBOUND:                 0.218
 SMILES C[C@@H]1C[C@@H](C(=O)Nc2cncc3ccccc23)c2cc(Cl)ccc2O1
 SMILES IDX 1 1 2 2 3 3 4 4 18 5 19 6 20 7 21 8 22 9 23 10 24 11 25 12
 SMILES IDX 5 13 6 14 7 15 8 17 9 18 17 19 10 20 16 21 12 22 11 23 15 24
 SMILES IDX 13 25 14 26
 H PARENT 7 16

>  <TORSDO>
F 2

$$$$
LON-POS-586a7c45-1
 OpenBabel07072620443D

 35 37  0  0  1  0  0  0  0  0999 V2000
  -23.2110   -5.7070  -29.6010 C   0  0  0  0  0  0  0  0  0  0  0  0
  -23.1990   -6.8990  -29.2990 O   0  0  0  0  0  0  0  0  0  0  0  0
  -23.7780   -4.7530  -28.7690 N   0  0  0  0  0  0  0  0  0  0  0  0
  -23.9680   -3.8320  -29.1490 H   0  0  0  0  0  0  0  0  0  0  0  0
  -22.5650   -5.1250  -30.8980 C   0  0  2  0  0  3  0  0  0  0  0  0
  -21.0830   -5.1690  -30.8590 N   0  0  0  0  0  0  0  0  0  0  0  0
  -20.4940   -5.7360  -31.9910 C   0  0  0  0  0  0  0  0  0  0  0  0
  -20.3110   -6.9480  -32.1280 O   0  0  0  0  0  0  0  0  0  0  0  0
  -20.0960   -4.8520  -33.1210 C   0  0  0  0  0  3  0  0  0  0  0  0
  -20.7700   -4.7740  -34.2770 C   0  0  0  0  0  2  0  0  0  0  0  0
  -20.4410   -5.2050  -29.5840 C   0  0  0  0  0  0  0  0  0  0  0  0
  -20.4640   -4.0800  -28.7600 C   0  0  0  0  0  3  0  0  0  0  0  0
  -19.7530   -6.3400  -29.1510 C   0  0  0  0  0  3  0  0  0  0  0  0
  -19.8220   -4.0900  -27.5150 C   0  0  0  0  0  3  0  0  0  0  0  0
  -19.1180   -6.3500  -27.9040 C   0  0  0  0  0  3  0  0  0  0  0  0
  -19.1350   -5.2260  -27.0570 C   0  0  0  0  0  0  0  0  0  0  0  0
  -18.4280   -5.2760  -25.6920 C   0  0  0  0  0  0  0  0  0  0  0  0
  -17.0630   -4.5510  -25.6680 C   0  0  0  0  0  1  0  0  0  0  0  0
  -19.3230   -4.6040  -24.6280 C   0  0  0  0  0  1  0  0  0  0  0  0
  -18.1700   -6.7430  -25.2860 C   0  0  0  0  0  1  0  0  0  0  0  0
  -23.1730   -3.7870  -31.2870 C   0  0  0  0  0  0  0  0  0  0  0  0
  -23.0570   -2.6360  -30.4980 C   0  0  0  0  0  3  0  0  0  0  0  0
  -23.8640   -3.6630  -32.4890 C   0  0  0  0  0  3  0  0  0  0  0  0
  -23.6310   -1.4420  -30.9240 C   0  0  0  0  0  3  0  0  0  0  0  0
  -24.4330   -2.5170  -32.9260 N   0  0  0  0  0  0  0  0  0  0  0  0
  -24.3050   -1.4330  -32.1320 C   0  0  0  0  0  3  0  0  0  0  0  0
  -24.5050   -5.1350  -27.5710 C   0  0  0  0  0  2  0  0  0  0  0  0
  -25.2710   -3.9680  -26.9350 C   0  0  0  0  0  2  0  0  0  0  0  0
  -25.0230   -3.8490  -25.4480 C   0  0  0  0  0  0  0  0  0  0  0  0
  -26.0210   -4.2080  -24.5290 C   0  0  0  0  0  3  0  0  0  0  0  0
  -23.8010   -3.3630  -24.9650 C   0  0  0  0  0  3  0  0  0  0  0  0
  -25.8020   -4.0860  -23.1540 C   0  0  0  0  0  3  0  0  0  0  0  0
  -23.5930   -3.2480  -23.5930 C   0  0  0  0  0  0  0  0  0  0  0  0
  -24.5820   -3.6050  -22.6840 C   0  0  0  0  0  3  0  0  0  0  0  0
  -22.4210   -2.7830  -23.1420 F   0  0  0  0  0  0  0  0  0  0  0  0
  1  2  2  0  0  0  0
  1  3  1  0  0  0  0
  3 27  1  0  0  0  0
  4  3  1  0  0  0  0
  5  6  1  0  0  0  0
  5  1  1  1  0  0  0
  6 11  1  0  0  0  0
  7  6  1  0  0  0  0
  8  7  2  0  0  0  0
  9  7  1  0  0  0  0
 10  9  2  0  0  0  0
 11 13  2  0  0  0  0
 11 12  1  0  0  0  0
 12 14  2  0  0  0  0
 13 15  1  0  0  0  0
 14 16  1  0  0  0  0
 15 16  2  0  0  0  0
 16 17  1  0  0  0  0
 17 18  1  0  0  0  0
 17 20  1  0  0  0  0
 17 19  1  0  0  0  0
 21  5  1  0  0  0  0
 21 22  1  0  0  0  0
 23 21  2  0  0  0  0
 24 22  2  0  0  0  0
 25 23  1  0  0  0  0
 25 26  2  0  0  0  0
 26 24  1  0  0  0  0
 27 28  1  0  0  0  0
 28 29  1  0  0  0  0
 29 31  2  0  0  0  0
 29 30  1  0  0  0  0
 30 32  2  0  0  0  0
 31 33  1  0  0  0  0
 32 34  1  0  0  0  0
 33 35  1  0  0  0  0
 33 34  2  0  0  0  0
M  END
>  <MODEL>
1

>  <REMARK>
 VINA RESULT:    -7.554      0.000      0.000
 INTER + INTRA:         -13.042
 INTER:                 -11.970
 INTRA:                  -1.072
 UNBOUND:                -1.072
 SMILES C=CC(=O)N(c1ccc(C(C)(C)C)cc1)[C@@H](C(=O)NCCc1cccc(F)c1)c1cccnc1
 SMILES IDX 17 1 18 2 19 3 16 5 5 6 3 7 4 8 2 9 1 10 6 11 7 12 15 13
 SMILES IDX 8 14 14 15 9 16 10 17 11 18 12 19 13 20 29 21 30 22 34 23
 SMILES IDX 31 24 33 25 32 26 20 27 21 28 22 29 23 30 28 31 24 32 26 33
 SMILES IDX 25 34 27 35
 H PARENT 19 4

>  <TORSDO>
F 10

$$$$
LON-WEI-2e27a2e5-1
 OpenBabel07072620443D

 38 41  0  0  1  0  0  0  0  0999 V2000
  -20.0950   -5.9220  -29.5450 C   0  0  0  0  0  0  0  0  0  0  0  0
  -19.7370   -4.7990  -29.1910 O   0  0  0  0  0  0  0  0  0  0  0  0
  -20.4260   -6.1850  -30.8670 N   0  0  0  0  0  0  0  0  0  0  0  0
  -20.8360   -7.0790  -31.1140 H   0  0  0  0  0  0  0  0  0  0  0  0
  -20.3550   -7.0860  -28.5550 C   0  0  2  0  0  3  0  0  0  0  0  0
  -20.5720   -6.6570  -27.1430 N   0  0  0  0  0  0  0  0  0  0  0  0
  -21.8560   -6.0580  -26.8680 C   0  0  0  0  0  0  0  0  0  0  0  0
  -24.4150   -4.9250  -26.2710 C   0  0  0  0  0  0  0  0  0  0  0  0
  -23.2250   -4.2580  -25.9490 C   0  0  0  0  0  3  0  0  0  0  0  0
  -24.2930   -6.1720  -26.9070 C   0  0  0  0  0  3  0  0  0  0  0  0
  -21.9710   -4.8130  -26.2440 C   0  0  0  0  0  3  0  0  0  0  0  0
  -23.0390   -6.7290  -27.1960 C   0  0  0  0  0  3  0  0  0  0  0  0
  -25.8050   -4.3370  -25.9750 C   0  0  0  0  0  0  0  0  0  0  0  0
  -25.6760   -3.1690  -24.9720 C   0  0  0  0  0  1  0  0  0  0  0  0
  -26.7080   -5.4310  -25.3660 C   0  0  0  0  0  1  0  0  0  0  0  0
  -26.5290   -3.7850  -27.2240 C   0  0  0  0  0  1  0  0  0  0  0  0
  -19.6680   -6.9040  -26.0800 C   0  0  0  0  0  0  0  0  0  0  0  0
  -19.7930   -7.8810  -25.3370 O   0  0  0  0  0  0  0  0  0  0  0  0
  -18.5490   -6.0050  -25.8320 C   0  0  0  0  0  0  0  0  0  0  0  0
  -17.2410   -6.3100  -25.4860 C   0  0  0  0  0  3  0  0  0  0  0  0
  -18.7090   -4.6490  -25.7940 O   0  0  0  0  0  0  0  0  0  0  0  0
  -16.5780   -5.0850  -25.2420 C   0  0  0  0  0  3  0  0  0  0  0  0
  -17.5190   -4.1040  -25.4300 C   0  0  0  0  0  3  0  0  0  0  0  0
  -19.5050   -8.3500  -28.6710 C   0  0  0  0  0  0  0  0  0  0  0  0
  -18.1250   -8.3700  -28.8990 C   0  0  0  0  0  3  0  0  0  0  0  0
  -20.1320   -9.5930  -28.5510 C   0  0  0  0  0  3  0  0  0  0  0  0
  -17.4450   -9.5830  -28.9910 C   0  0  0  0  0  3  0  0  0  0  0  0
  -19.5000  -10.7860  -28.6500 N   0  0  0  0  0  0  0  0  0  0  0  0
  -18.1700  -10.7540  -28.8620 C   0  0  0  0  0  3  0  0  0  0  0  0
  -20.3110   -5.1690  -31.8970 C   0  0  0  0  0  2  0  0  0  0  0  0
  -21.6070   -5.0050  -32.6950 C   0  0  0  0  0  2  0  0  0  0  0  0
  -22.4940   -3.9380  -32.1050 C   0  0  0  0  0  0  0  0  0  0  0  0
  -23.1650   -3.0340  -32.9430 C   0  0  0  0  0  3  0  0  0  0  0  0
  -22.6840   -3.8510  -30.7200 C   0  0  0  0  0  3  0  0  0  0  0  0
  -24.0020   -2.0530  -32.4050 C   0  0  0  0  0  3  0  0  0  0  0  0
  -23.5220   -2.8700  -30.1960 C   0  0  0  0  0  0  0  0  0  0  0  0
  -24.1810   -1.9710  -31.0250 C   0  0  0  0  0  3  0  0  0  0  0  0
  -23.6960   -2.7960  -28.8700 F   0  0  0  0  0  0  0  0  0  0  0  0
  1  2  2  0  0  0  0
  3  1  1  0  0  0  0
  4  3  1  0  0  0  0
  5  1  1  6  0  0  0
  5  6  1  0  0  0  0
  6  7  1  0  0  0  0
  6 17  1  0  0  0  0
  7 11  1  0  0  0  0
  8 13  1  0  0  0  0
  8  9  1  0  0  0  0
 10  8  2  0  0  0  0
 11  9  2  0  0  0  0
 12 10  1  0  0  0  0
 12  7  2  0  0  0  0
 13 15  1  0  0  0  0
 13 14  1  0  0  0  0
 16 13  1  0  0  0  0
 17 19  1  0  0  0  0
 17 18  2  0  0  0  0
 19 21  1  0  0  0  0
 19 20  2  0  0  0  0
 20 22  1  0  0  0  0
 21 23  1  0  0  0  0
 23 22  2  0  0  0  0
 24  5  1  0  0  0  0
 24 26  1  0  0  0  0
 25 24  2  0  0  0  0
 27 25  1  0  0  0  0
 27 29  2  0  0  0  0
 28 26  2  0  0  0  0
 29 28  1  0  0  0  0
 30  3  1  0  0  0  0
 31 32  1  0  0  0  0
 31 30  1  0  0  0  0
 32 34  1  0  0  0  0
 33 35  1  0  0  0  0
 33 32  2  0  0  0  0
 34 36  2  0  0  0  0
 35 37  2  0  0  0  0
 36 38  1  0  0  0  0
 37 36  1  0  0  0  0
M  END
>  <MODEL>
1

>  <REMARK>
 VINA RESULT:    -7.541      0.000      0.000
 INTER + INTRA:         -14.698
 INTER:                 -11.949
 INTRA:                  -2.749
 UNBOUND:                -2.749
 SMILES CC(C)(C)c1ccc(N(C(=O)c2ccco2)C(C(=O)NCCc2cccc(F)c2)c2cccnc2)cc1
 SMILES IDX 18 1 19 2 20 3 17 5 9 6 8 7 5 8 6 9 37 10 7 11 36 12 2 13
 SMILES IDX 1 14 3 15 4 16 10 17 11 18 12 19 13 20 16 21 14 22 15 23
 SMILES IDX 30 24 31 25 35 26 32 27 34 28 33 29 21 30 22 31 23 32 24 33
 SMILES IDX 29 34 25 35 27 36 26 37 28 38
 H PARENT 20 4

>  <TORSDO>
F 10

$$$$
LON-WEI-adc59df6-47
 OpenBabel07072620443D

 35 37  0  0  1  0  0  0  0  0999 V2000
  -21.0120   -5.7490  -30.6240 C   0  0  0  0  0  0  0  0  0  0  0  0
  -20.0690   -5.0210  -30.9200 O   0  0  0  0  0  0  0  0  0  0  0  0
  -20.9100   -7.1310  -30.6830 N   0  0  0  0  0  0  0  0  0  0  0  0
  -21.7050   -7.7120  -30.4410 H   0  0  0  0  0  0  0  0  0  0  0  0
  -22.4010   -5.2280  -30.1800 C   0  0  1  0  0  3  0  0  0  0  0  0
  -22.5240   -5.1100  -28.6960 N   0  0  0  0  0  0  0  0  0  0  0  0
  -21.4410   -4.8900  -27.8300 C   0  0  0  0  0  0  0  0  0  0  0  0
  -20.7850   -3.8490  -27.7640 O   0  0  0  0  0  0  0  0  0  0  0  0
  -21.0540   -5.9890  -26.9020 C   0  0  0  0  0  3  0  0  0  0  0  0
  -19.9160   -6.6640  -27.1050 C   0  0  0  0  0  2  0  0  0  0  0  0
  -23.8620   -5.2180  -28.1570 C   0  0  0  0  0  0  0  0  0  0  0  0
  -24.6950   -6.2950  -28.4700 C   0  0  0  0  0  3  0  0  0  0  0  0
  -24.3710   -4.2510  -27.2800 C   0  0  0  0  0  3  0  0  0  0  0  0
  -25.9810   -6.4060  -27.9210 C   0  0  0  0  0  3  0  0  0  0  0  0
  -25.6590   -4.3610  -26.7310 C   0  0  0  0  0  3  0  0  0  0  0  0
  -26.4940   -5.4430  -27.0370 C   0  0  0  0  0  0  0  0  0  0  0  0
  -27.9130   -5.5940  -26.4640 C   0  0  0  0  0  0  0  0  0  0  0  0
  -28.8290   -4.5040  -27.0590 C   0  0  0  0  0  1  0  0  0  0  0  0
  -28.4780   -6.9850  -26.8260 C   0  0  0  0  0  1  0  0  0  0  0  0
  -27.9810   -5.4630  -24.9260 C   0  0  0  0  0  1  0  0  0  0  0  0
  -22.9290   -4.0210  -30.9450 C   0  0  0  0  0  0  0  0  0  0  0  0
  -23.0780   -2.7870  -30.2910 C   0  0  0  0  0  3  0  0  0  0  0  0
  -23.3110   -4.0680  -32.2840 C   0  0  0  0  0  3  0  0  0  0  0  0
  -23.5790   -1.6850  -30.9770 C   0  0  0  0  0  3  0  0  0  0  0  0
  -23.8140   -3.0160  -32.9700 N   0  0  0  0  0  0  0  0  0  0  0  0
  -23.9300   -1.8490  -32.3050 C   0  0  0  0  0  3  0  0  0  0  0  0
  -19.6790   -7.7860  -31.0890 C   0  0  0  0  0  2  0  0  0  0  0  0
  -19.9200   -8.8700  -32.1430 C   0  0  0  0  0  2  0  0  0  0  0  0
  -19.9050   -8.3030  -33.5400 C   0  0  0  0  0  0  0  0  0  0  0  0
  -20.4710   -9.0150  -34.6090 C   0  0  0  0  0  3  0  0  0  0  0  0
  -19.3460   -7.0410  -33.7850 C   0  0  0  0  0  3  0  0  0  0  0  0
  -20.4720   -8.4770  -35.8990 C   0  0  0  0  0  3  0  0  0  0  0  0
  -19.3530   -6.5160  -35.0720 C   0  0  0  0  0  0  0  0  0  0  0  0
  -19.9110   -7.2230  -36.1310 C   0  0  0  0  0  3  0  0  0  0  0  0
  -18.8160   -5.3090  -35.2960 F   0  0  0  0  0  0  0  0  0  0  0  0
  2  1  2  0  0  0  0
  3  1  1  0  0  0  0
  3  4  1  0  0  0  0
  5  1  1  1  0  0  0
  5  6  1  0  0  0  0
  6 11  1  0  0  0  0
  6  7  1  0  0  0  0
  7  8  2  0  0  0  0
  7  9  1  0  0  0  0
 10  9  2  0  0  0  0
 11 13  1  0  0  0  0
 12 11  2  0  0  0  0
 12 14  1  0  0  0  0
 13 15  2  0  0  0  0
 14 16  2  0  0  0  0
 16 15  1  0  0  0  0
 16 17  1  0  0  0  0
 17 20  1  0  0  0  0
 18 17  1  0  0  0  0
 19 17  1  0  0  0  0
 21 22  1  0  0  0  0
 21  5  1  0  0  0  0
 23 21  2  0  0  0  0
 24 22  2  0  0  0  0
 25 26  2  0  0  0  0
 25 23  1  0  0  0  0
 26 24  1  0  0  0  0
 27  3  1  0  0  0  0
 28 27  1  0  0  0  0
 29 28  1  0  0  0  0
 30 29  2  0  0  0  0
 31 29  1  0  0  0  0
 32 30  1  0  0  0  0
 33 31  2  0  0  0  0
 34 32  2  0  0  0  0
 34 33  1  0  0  0  0
 35 33  1  0  0  0  0
M  END
>  <MODEL>
1

>  <REMARK>
 VINA RESULT:    -7.099      0.000      0.000
 INTER + INTRA:         -13.393
 INTER:                 -11.249
 INTRA:                  -2.144
 UNBOUND:                -2.144
 SMILES C=CC(=O)N(c1ccc(C(C)(C)C)cc1)C(C(=O)NCCc1cccc(F)c1)c1cccnc1
 SMILES IDX 17 1 18 2 19 3 16 5 5 6 3 7 4 8 2 9 1 10 6 11 7 12 15 13
 SMILES IDX 8 14 14 15 9 16 10 17 11 18 12 19 13 20 29 21 30 22 34 23
 SMILES IDX 31 24 33 25 32 26 20 27 21 28 22 29 23 30 28 31 24 32 26 33
 SMILES IDX 25 34 27 35
 H PARENT 19 4

>  <TORSDO>
F 10

$$$$
LUO-POS-9931618f-2
 OpenBabel07072620443D

 33 37  0  0  1  0  0  0  0  0999 V2000
  -19.9840   -7.0550  -26.2880 C   0  0  0  0  0  2  0  0  0  0  0  0
  -19.3400   -5.8440  -25.6120 C   0  0  0  0  0  0  0  0  0  0  0  0
  -17.9610   -5.8510  -25.6660 N   0  0  0  0  0  0  0  0  0  0  0  0
  -20.0030   -4.9050  -25.1720 O   0  0  0  0  0  0  0  0  0  0  0  0
  -17.2030   -4.7090  -25.2250 C   0  0  0  0  0  1  0  0  0  0  0  0
  -17.5600   -6.4070  -26.4240 H   0  0  0  0  0  0  0  0  0  0  0  0
  -20.8130   -6.5600  -27.3810 N   0  0  0  0  0  0  0  0  0  0  0  0
  -22.2540   -6.7630  -27.3110 C   0  0  0  0  0  2  0  0  0  0  0  0
  -20.2160   -5.9030  -28.4440 C   0  0  0  0  0  0  0  0  0  0  0  0
  -23.0410   -5.5660  -27.8680 C   0  0  1  0  0  0  0  0  0  0  0  0
  -21.1270   -5.3770  -29.5020 C   0  0  0  0  0  0  0  0  0  0  0  0
  -19.0040   -5.7180  -28.5140 O   0  0  0  0  0  0  0  0  0  0  0  0
  -22.9860   -4.3260  -26.9580 C   0  0  0  0  0  2  0  0  0  0  0  0
  -22.5070   -5.2230  -29.2500 C   0  0  0  0  0  0  0  0  0  0  0  0
  -24.5130   -5.9530  -27.7710 C   0  0  0  0  0  0  0  0  0  0  0  0
  -20.5810   -5.0030  -30.7370 C   0  0  0  0  0  3  0  0  0  0  0  0
  -24.0370   -4.5950  -25.8990 C   0  0  0  0  0  2  0  0  0  0  0  0
  -23.3210   -4.6900  -30.2640 C   0  0  0  0  0  3  0  0  0  0  0  0
  -25.0170   -5.4100  -26.5800 N   0  0  0  0  0  0  0  0  0  0  0  0
  -25.1080   -6.6310  -28.5950 O   0  0  0  0  0  0  0  0  0  0  0  0
  -21.4050   -4.4820  -31.7350 C   0  0  0  0  0  3  0  0  0  0  0  0
  -22.7690   -4.3300  -31.4960 C   0  0  0  0  0  0  0  0  0  0  0  0
  -23.7810   -3.6790  -32.7260 Cl  0  0  0  0  0  0  0  0  0  0  0  0
  -26.3140   -5.6350  -26.0430 C   0  0  0  0  0  0  0  0  0  0  0  0
  -27.3400   -4.7420  -26.3790 C   0  0  0  0  0  3  0  0  0  0  0  0
  -26.6450   -6.7130  -25.1710 C   0  0  0  0  0  0  0  0  0  0  0  0
  -28.6250   -4.8390  -25.9780 N   0  0  0  0  0  0  0  0  0  0  0  0
  -25.7290   -7.6490  -24.6240 C   0  0  0  0  0  3  0  0  0  0  0  0
  -27.9920   -6.8380  -24.7490 C   0  0  0  0  0  0  0  0  0  0  0  0
  -28.9170   -5.8900  -25.1850 C   0  0  0  0  0  3  0  0  0  0  0  0
  -26.1320   -8.6780  -23.7650 C   0  0  0  0  0  3  0  0  0  0  0  0
  -28.3900   -7.8780  -23.8870 C   0  0  0  0  0  3  0  0  0  0  0  0
  -27.4660   -8.7980  -23.4060 C   0  0  0  0  0  3  0  0  0  0  0  0
  1  2  1  0  0  0  0
  2  4  2  0  0  0  0
  3  2  1  0  0  0  0
  3  5  1  0  0  0  0
  6  3  1  0  0  0  0
  7  8  1  0  0  0  0
  7  1  1  0  0  0  0
  9  7  1  0  0  0  0
 10 15  1  0  0  0  0
 10  8  1  1  0  0  0
 10 13  1  0  0  0  0
 11 14  1  0  0  0  0
 11  9  1  0  0  0  0
 12  9  2  0  0  0  0
 13 17  1  0  0  0  0
 14 10  1  0  0  0  0
 15 19  1  0  0  0  0
 16 11  2  0  0  0  0
 18 14  2  0  0  0  0
 19 24  1  0  0  0  0
 19 17  1  0  0  0  0
 20 15  2  0  0  0  0
 21 22  2  0  0  0  0
 21 16  1  0  0  0  0
 22 18  1  0  0  0  0
 23 22  1  0  0  0  0
 24 26  1  0  0  0  0
 25 24  2  0  0  0  0
 25 27  1  0  0  0  0
 26 29  2  0  0  0  0
 26 28  1  0  0  0  0
 27 30  2  0  0  0  0
 28 31  2  0  0  0  0
 29 32  1  0  0  0  0
 30 29  1  0  0  0  0
 31 33  1  0  0  0  0
 32 33  2  0  0  0  0
M  END
>  <MODEL>
1

>  <REMARK>
 VINA RESULT:    -7.757      0.000      0.000
 INTER + INTRA:          -9.971
 INTER:                  -9.118
 INTRA:                  -0.853
 UNBOUND:                -0.853
 SMILES CNC(=O)CN1C[C@@]2(CCN(c3cncc4ccccc34)C2=O)c2cc(Cl)ccc2C1=O
 SMILES IDX 5 1 3 2 2 3 4 4 1 5 6 7 7 8 31 9 8 10 30 11 32 12 9 13 24 14
 SMILES IDX 22 15 29 16 10 17 25 18 11 19 23 20 28 21 26 22 27 23 12 24
 SMILES IDX 13 25 21 26 14 27 20 28 16 29 15 30 19 31 17 32 18 33
 H PARENT 2 6

>  <TORSDO>
F 3

$$$$
MAT-POS-199e2e7c-1
 OpenBabel07072620443D

 21 23  0  0  0  0  0  0  0  0999 V2000
  -22.2210   -4.6910  -28.7930 C   0  0  0  0  0  2  0  0  0  0  0  0
  -20.7320   -4.7940  -28.4830 C   0  0  0  0  0  0  0  0  0  0  0  0
  -19.9090   -4.7600  -29.3910 O   0  0  0  0  0  0  0  0  0  0  0  0
  -20.4720   -4.9190  -27.1310 N   0  0  0  0  0  0  0  0  0  0  0  0
  -21.2400   -4.6560  -26.5220 H   0  0  0  0  0  0  0  0  0  0  0  0
  -19.2350   -5.1240  -26.4820 C   0  0  0  0  0  0  0  0  0  0  0  0
  -18.5070   -3.9800  -26.1220 C   0  0  0  0  0  3  0  0  0  0  0  0
  -18.6610   -6.3310  -26.1160 C   0  0  0  0  0  0  0  0  0  0  0  0
  -17.2980   -3.9630  -25.4960 N   0  0  0  0  0  0  0  0  0  0  0  0
  -17.4110   -6.3400  -25.4700 C   0  0  0  0  0  0  0  0  0  0  0  0
  -19.1370   -7.7470  -26.2670 C   0  0  0  0  0  2  0  0  0  0  0  0
  -16.7610   -5.1600  -25.1910 C   0  0  0  0  0  3  0  0  0  0  0  0
  -16.9400   -7.7270  -25.1830 C   0  0  0  0  0  2  0  0  0  0  0  0
  -18.2600   -8.4940  -25.2510 C   0  0  0  0  0  2  0  0  0  0  0  0
  -22.5180   -4.1800  -30.1830 C   0  0  0  0  0  0  0  0  0  0  0  0
  -22.0940   -4.8960  -31.3120 C   0  0  0  0  0  3  0  0  0  0  0  0
  -23.2160   -2.9760  -30.3640 C   0  0  0  0  0  3  0  0  0  0  0  0
  -22.3730   -4.4250  -32.5970 C   0  0  0  0  0  3  0  0  0  0  0  0
  -23.4920   -2.5100  -31.6480 C   0  0  0  0  0  0  0  0  0  0  0  0
  -23.0760   -3.2310  -32.7650 C   0  0  0  0  0  3  0  0  0  0  0  0
  -24.3540   -1.0360  -31.8580 Cl  0  0  0  0  0  0  0  0  0  0  0  0
  1  2  1  0  0  0  0
  2  4  1  0  0  0  0
  3  2  2  0  0  0  0
  4  5  1  0  0  0  0
  4  6  1  0  0  0  0
  6  7  2  0  0  0  0
  6  8  1  0  0  0  0
  7  9  1  0  0  0  0
  8 10  2  0  0  0  0
  9 12  2  0  0  0  0
 10 12  1  0  0  0  0
 10 13  1  0  0  0  0
 11  8  1  0  0  0  0
 11 14  1  0  0  0  0
 14 13  1  0  0  0  0
 15  1  1  0  0  0  0
 16 15  2  0  0  0  0
 17 15  1  0  0  0  0
 18 16  1  0  0  0  0
 19 17  2  0  0  0  0
 20 18  2  0  0  0  0
 20 19  1  0  0  0  0
 21 19  1  0  0  0  0
M  END
>  <MODEL>
1

>  <REMARK>
 VINA RESULT:    -7.161      0.000      0.000
 INTER + INTRA:          -8.433
 INTER:                  -8.417
 INTRA:                  -0.016
 UNBOUND:                -0.016
 SMILES O=C(Cc1cccc(Cl)c1)Nc1cncc2c1CCC2
 SMILES IDX 3 1 2 2 1 3 11 4 12 6 13 7 17 8 14 9 16 10 18 11 15 12 20 13
 SMILES IDX 19 14 4 15 5 16 10 17 6 18 8 19 7 20 9 21
 H PARENT 11 5

>  <TORSDO>
F 3

$$$$
MAT-POS-1bed62cf-2
 OpenBabel07072620443D

 34 38  0  0  1  0  0  0  0  0999 V2000
  -19.9060   -7.3920  -30.1390 C   0  0  0  0  0  2  0  0  0  0  0  0
  -20.4780   -8.5270  -29.2870 C   0  0  0  0  0  0  0  0  0  0  0  0
  -21.8120   -8.7830  -29.5230 N   0  0  0  0  0  0  0  0  0  0  0  0
  -19.7800   -9.1700  -28.5030 O   0  0  0  0  0  0  0  0  0  0  0  0
  -22.5440   -9.7880  -28.7980 C   0  0  0  0  0  1  0  0  0  0  0  0
  -22.2900   -8.2180  -30.2250 H   0  0  0  0  0  0  0  0  0  0  0  0
  -20.8450   -6.2730  -30.2320 N   0  0  0  0  0  0  0  0  0  0  0  0
  -20.9840   -5.4060  -29.0730 C   0  0  0  0  0  2  0  0  0  0  0  0
  -21.1580   -5.7890  -31.4960 C   0  0  0  0  0  0  0  0  0  0  0  0
  -22.3290   -4.6450  -29.0400 C   0  0  1  0  0  0  0  0  0  0  0  0
  -22.0490   -4.5940  -31.5630 C   0  0  0  0  0  0  0  0  0  0  0  0
  -20.7170   -6.2950  -32.5260 O   0  0  0  0  0  0  0  0  0  0  0  0
  -22.2840   -3.6550  -27.8670 C   0  0  0  0  0  2  0  0  0  0  0  0
  -22.6310   -4.0380  -30.4030 C   0  0  0  0  0  0  0  0  0  0  0  0
  -23.4080   -5.6170  -28.5810 C   0  0  0  0  0  0  0  0  0  0  0  0
  -22.3240   -4.0520  -32.8300 C   0  0  0  0  0  3  0  0  0  0  0  0
  -22.8000   -4.4700  -26.7190 C   0  0  0  0  0  0  0  0  0  0  0  0
  -23.5310   -2.9650  -30.5670 C   0  0  0  0  0  3  0  0  0  0  0  0
  -23.5880   -5.4760  -27.2220 N   0  0  0  0  0  0  0  0  0  0  0  0
  -23.9930   -6.3960  -29.3240 O   0  0  0  0  0  0  0  0  0  0  0  0
  -23.1890   -2.9680  -32.9640 C   0  0  0  0  0  3  0  0  0  0  0  0
  -22.4960   -4.2330  -25.5590 O   0  0  0  0  0  0  0  0  0  0  0  0
  -23.7950   -2.4340  -31.8330 C   0  0  0  0  0  0  0  0  0  0  0  0
  -24.8850   -1.1110  -31.9910 Cl  0  0  0  0  0  0  0  0  0  0  0  0
  -24.3270   -6.3980  -26.4220 C   0  0  0  0  0  0  0  0  0  0  0  0
  -23.7170   -7.5950  -26.0210 C   0  0  0  0  0  3  0  0  0  0  0  0
  -25.6660   -6.1670  -25.9770 C   0  0  0  0  0  0  0  0  0  0  0  0
  -24.2640   -8.5110  -25.1930 N   0  0  0  0  0  0  0  0  0  0  0  0
  -26.5000   -5.0890  -26.3780 C   0  0  0  0  0  3  0  0  0  0  0  0
  -26.2520   -7.1200  -25.1060 C   0  0  0  0  0  0  0  0  0  0  0  0
  -25.5090   -8.2440  -24.7500 C   0  0  0  0  0  3  0  0  0  0  0  0
  -27.8020   -4.9310  -25.8920 C   0  0  0  0  0  3  0  0  0  0  0  0
  -27.5640   -6.9510  -24.6210 C   0  0  0  0  0  3  0  0  0  0  0  0
  -28.3300   -5.8560  -25.0040 C   0  0  0  0  0  3  0  0  0  0  0  0
  1  2  1  0  0  0  0
  2  4  2  0  0  0  0
  3  2  1  0  0  0  0
  3  5  1  0  0  0  0
  6  3  1  0  0  0  0
  7  1  1  0  0  0  0
  7  8  1  0  0  0  0
  9  7  1  0  0  0  0
 10  8  1  6  0  0  0
 10 15  1  0  0  0  0
 10 13  1  0  0  0  0
 11  9  1  0  0  0  0
 11 14  1  0  0  0  0
 12  9  2  0  0  0  0
 13 17  1  0  0  0  0
 14 10  1  0  0  0  0
 15 19  1  0  0  0  0
 16 11  2  0  0  0  0
 17 22  2  0  0  0  0
 18 14  2  0  0  0  0
 19 17  1  0  0  0  0
 19 25  1  0  0  0  0
 20 15  2  0  0  0  0
 21 16  1  0  0  0  0
 21 23  2  0  0  0  0
 23 18  1  0  0  0  0
 24 23  1  0  0  0  0
 25 26  2  0  0  0  0
 25 27  1  0  0  0  0
 26 28  1  0  0  0  0
 27 30  1  0  0  0  0
 28 31  2  0  0  0  0
 29 27  2  0  0  0  0
 29 32  1  0  0  0  0
 30 31  1  0  0  0  0
 30 33  2  0  0  0  0
 32 34  2  0  0  0  0
 34 33  1  0  0  0  0
M  END
>  <MODEL>
1

>  <REMARK>
 VINA RESULT:    -7.788      0.000      0.000
 INTER + INTRA:         -10.655
 INTER:                  -9.154
 INTRA:                  -1.501
 UNBOUND:                -1.501
 SMILES CNC(=O)CN1CC2(CC(=O)N(c3cncc4ccccc34)C2=O)c2cc(Cl)ccc2C1=O
 SMILES IDX 5 1 3 2 2 3 4 4 1 5 6 7 7 8 32 9 8 10 31 11 33 12 9 13 25 14
 SMILES IDX 23 15 30 16 10 17 26 18 12 19 24 20 29 21 11 22 27 23 28 24
 SMILES IDX 13 25 14 26 22 27 15 28 21 29 17 30 16 31 20 32 18 33 19 34
 H PARENT 2 6

>  <TORSDO>
F 3

$$$$
MAT-POS-24589f88-1
 OpenBabel07072620443D

 29 32  0  0  1  0  0  0  0  0999 V2000
  -19.3250   -7.3020  -30.5420 N   0  0  0  0  0  0  0  0  0  0  0  0
  -19.7980   -8.5660  -30.8740 C   0  0  0  0  0  0  0  0  0  0  0  0
  -20.6760   -9.1750  -30.2700 O   0  0  0  0  0  0  0  0  0  0  0  0
  -18.5740   -6.9780  -31.1420 H   0  0  0  0  0  0  0  0  0  0  0  0
  -19.7360   -6.4580  -29.4820 C   0  0  0  0  0  0  0  0  0  0  0  0
  -22.2010   -4.0980  -31.1710 C   0  0  0  0  0  0  0  0  0  0  0  0
  -22.5600   -3.3080  -30.0870 C   0  0  0  0  0  3  0  0  0  0  0  0
  -21.2750   -5.1350  -30.9900 C   0  0  0  0  0  3  0  0  0  0  0  0
  -21.9970   -3.5560  -28.8340 C   0  0  0  0  0  3  0  0  0  0  0  0
  -20.6810   -5.4190  -29.7310 C   0  0  0  0  0  0  0  0  0  0  0  0
  -21.0690   -4.5950  -28.6500 C   0  0  0  0  0  0  0  0  0  0  0  0
  -20.5100   -4.8400  -27.3970 C   0  0  0  0  0  3  0  0  0  0  0  0
  -19.2540   -6.5970  -28.1800 C   0  0  0  0  0  3  0  0  0  0  0  0
  -19.6150   -5.8130  -27.1360 N   0  0  0  0  0  0  0  0  0  0  0  0
  -22.6670   -3.9700  -32.4500 O   0  0  0  0  0  0  0  0  0  0  0  0
  -23.6380   -2.9570  -32.6840 C   0  0  0  0  0  1  0  0  0  0  0  0
  -19.0860   -9.1470  -32.1480 C   0  0  1  0  0  0  0  0  0  0  0  0
  -19.4330  -10.6420  -32.2620 C   0  0  0  0  0  2  0  0  0  0  0  0
  -19.5690   -8.4400  -33.4190 C   0  0  0  0  0  0  0  0  0  0  0  0
  -19.0160  -11.1500  -33.6270 C   0  0  0  0  0  2  0  0  0  0  0  0
  -19.6720   -7.0370  -33.4960 C   0  0  0  0  0  3  0  0  0  0  0  0
  -19.8870   -9.1810  -34.5690 C   0  0  0  0  0  0  0  0  0  0  0  0
  -19.7980  -10.5450  -34.6540 O   0  0  0  0  0  0  0  0  0  0  0  0
  -20.1190   -6.4120  -34.6630 C   0  0  0  0  0  0  0  0  0  0  0  0
  -20.3490   -8.5520  -35.7280 C   0  0  0  0  0  3  0  0  0  0  0  0
  -20.4670   -7.1650  -35.7780 C   0  0  0  0  0  3  0  0  0  0  0  0
  -20.2410   -4.6960  -34.7190 Cl  0  0  0  0  0  0  0  0  0  0  0  0
  -17.6680   -8.8810  -32.1030 O   0  0  0  0  0  0  0  0  0  0  0  0
  -16.9150   -9.6270  -31.1530 C   0  0  0  0  0  1  0  0  0  0  0  0
  1  5  1  0  0  0  0
  2  1  1  0  0  0  0
  2  3  2  0  0  0  0
  4  1  1  0  0  0  0
  5 13  1  0  0  0  0
  6  8  2  0  0  0  0
  6  7  1  0  0  0  0
  7  9  2  0  0  0  0
  8 10  1  0  0  0  0
  9 11  1  0  0  0  0
 10  5  2  0  0  0  0
 10 11  1  0  0  0  0
 11 12  2  0  0  0  0
 12 14  1  0  0  0  0
 13 14  2  0  0  0  0
 15  6  1  0  0  0  0
 16 15  1  0  0  0  0
 17 28  1  1  0  0  0
 17  2  1  0  0  0  0
 18 17  1  0  0  0  0
 19 17  1  0  0  0  0
 20 18  1  0  0  0  0
 21 19  1  0  0  0  0
 22 19  2  0  0  0  0
 23 22  1  0  0  0  0
 23 20  1  0  0  0  0
 24 21  2  0  0  0  0
 25 22  1  0  0  0  0
 26 25  2  0  0  0  0
 26 24  1  0  0  0  0
 27 24  1  0  0  0  0
 28 29  1  0  0  0  0
M  END
>  <MODEL>
1

>  <REMARK>
 VINA RESULT:    -7.029      0.000      0.000
 INTER + INTRA:          -9.357
 INTER:                  -8.673
 INTRA:                  -0.684
 UNBOUND:                -0.684
 SMILES COc1ccc2cncc(NC(=O)[C@@]3(OC)CCOc4ccc(Cl)cc43)c2c1
 SMILES IDX 11 1 12 2 13 3 10 5 3 6 4 7 28 8 5 9 27 10 6 11 7 12 9 13
 SMILES IDX 8 14 2 15 1 16 14 17 17 18 26 19 18 20 25 21 20 22 19 23
 SMILES IDX 23 24 21 25 22 26 24 27 15 28 16 29
 H PARENT 11 4

>  <TORSDO>
F 4

$$$$
MAT-POS-29385cc1-2
 OpenBabel07072620443D

 25 27  0  0  0  0  0  0  0  0999 V2000
  -21.6320   -5.0300  -33.6080 N   0  0  0  0  0  0  0  0  0  0  0  0
  -20.4280   -4.8770  -34.2750 C   0  0  0  0  0  0  0  0  0  0  0  0
  -19.5690   -4.0370  -34.0250 O   0  0  0  0  0  0  0  0  0  0  0  0
  -22.2450   -5.7450  -33.9730 H   0  0  0  0  0  0  0  0  0  0  0  0
  -22.1280   -4.2570  -32.5260 C   0  0  0  0  0  0  0  0  0  0  0  0
  -20.6250   -4.7150  -28.5320 C   0  0  0  0  0  0  0  0  0  0  0  0
  -21.6190   -3.7870  -28.8380 C   0  0  0  0  0  3  0  0  0  0  0  0
  -20.1230   -5.5050  -29.5620 C   0  0  0  0  0  0  0  0  0  0  0  0
  -22.1010   -3.6510  -30.1580 C   0  0  0  0  0  0  0  0  0  0  0  0
  -20.5890   -5.3830  -30.8730 C   0  0  0  0  0  3  0  0  0  0  0  0
  -23.0980   -2.7240  -30.4550 C   0  0  0  0  0  3  0  0  0  0  0  0
  -21.5950   -4.4470  -31.2140 C   0  0  0  0  0  0  0  0  0  0  0  0
  -23.6190   -2.5260  -31.6810 N   0  0  0  0  0  0  0  0  0  0  0  0
  -23.1250   -3.2920  -32.6820 C   0  0  0  0  0  3  0  0  0  0  0  0
  -19.1680   -6.4120  -29.3120 F   0  0  0  0  0  0  0  0  0  0  0  0
  -20.0840   -4.9320  -27.2950 O   0  0  0  0  0  0  0  0  0  0  0  0
  -19.0200   -4.0810  -26.8880 C   0  0  0  0  0  1  0  0  0  0  0  0
  -20.1960   -5.9130  -35.3700 C   0  0  0  0  0  2  0  0  0  0  0  0
  -19.9100   -7.3070  -34.8590 C   0  0  0  0  0  0  0  0  0  0  0  0
  -20.5270   -8.4200  -35.4530 C   0  0  0  0  0  3  0  0  0  0  0  0
  -19.0280   -7.5080  -33.7880 C   0  0  0  0  0  3  0  0  0  0  0  0
  -20.2770   -9.7080  -34.9730 C   0  0  0  0  0  3  0  0  0  0  0  0
  -18.7820   -8.7980  -33.3150 C   0  0  0  0  0  0  0  0  0  0  0  0
  -19.4040   -9.8970  -33.9020 C   0  0  0  0  0  3  0  0  0  0  0  0
  -17.7050   -9.0290  -31.9940 Cl  0  0  0  0  0  0  0  0  0  0  0  0
  1  5  1  0  0  0  0
  2  3  2  0  0  0  0
  2  1  1  0  0  0  0
  4  1  1  0  0  0  0
  5 12  1  0  0  0  0
  6 16  1  0  0  0  0
  7  6  1  0  0  0  0
  8 15  1  0  0  0  0
  8  6  2  0  0  0  0
  9  7  2  0  0  0  0
 10  8  1  0  0  0  0
 11  9  1  0  0  0  0
 12 10  2  0  0  0  0
 12  9  1  0  0  0  0
 13 11  2  0  0  0  0
 14  5  2  0  0  0  0
 14 13  1  0  0  0  0
 16 17  1  0  0  0  0
 18 19  1  0  0  0  0
 18  2  1  0  0  0  0
 19 21  1  0  0  0  0
 20 22  1  0  0  0  0
 20 19  2  0  0  0  0
 21 23  2  0  0  0  0
 22 24  2  0  0  0  0
 23 25  1  0  0  0  0
 24 23  1  0  0  0  0
M  END
>  <MODEL>
1

>  <REMARK>
 VINA RESULT:    -7.158      0.000      0.000
 INTER + INTRA:          -9.694
 INTER:                  -8.832
 INTRA:                  -0.862
 UNBOUND:                -0.862
 SMILES COc1cc2cncc(NC(=O)Cc3cccc(Cl)c3)c2cc1F
 SMILES IDX 10 1 11 2 12 3 9 5 3 6 4 7 23 8 5 9 22 10 6 11 21 12 7 13
 SMILES IDX 8 14 24 15 2 16 1 17 13 18 14 19 15 20 20 21 16 22 18 23
 SMILES IDX 17 24 19 25
 H PARENT 10 4

>  <TORSDO>
F 4

$$$$
MAT-POS-5cd9ea36-10
 OpenBabel07072620443D

 33 37  0  0  1  0  0  0  0  0999 V2000
  -24.7970   -4.2960  -26.8370 S   0  0  0  0  0  0  0  0  0  0  0  0
  -24.9570   -3.5970  -25.5780 O   0  0  0  0  0  0  0  0  0  0  0  0
  -24.8150   -3.5560  -28.0820 O   0  0  0  0  0  0  0  0  0  0  0  0
  -26.0450   -5.5940  -26.9200 C   0  0  0  0  0  2  0  0  0  0  0  0
  -27.3740   -5.1260  -26.3440 C   0  0  0  0  0  0  0  0  0  0  0  0
  -28.0880   -3.9390  -26.9640 C   0  0  0  0  0  2  0  0  0  0  0  0
  -28.5810   -5.3240  -27.2480 C   0  0  0  0  0  2  0  0  0  0  0  0
  -27.6080   -5.3990  -24.8760 C   0  0  0  0  0  1  0  0  0  0  0  0
  -23.3360   -5.1470  -26.7500 N   0  0  0  0  0  0  0  0  0  0  0  0
  -22.1680   -4.3410  -26.3090 C   0  0  0  0  0  2  0  0  0  0  0  0
  -22.9710   -5.9300  -27.9650 C   0  0  0  0  0  2  0  0  0  0  0  0
  -20.9170   -5.1830  -26.1400 C   0  0  0  0  0  0  0  0  0  0  0  0
  -21.9710   -7.0230  -27.5480 C   0  0  2  0  0  3  0  0  0  0  0  0
  -19.8470   -4.6670  -25.3910 C   0  0  0  0  0  3  0  0  0  0  0  0
  -20.7940   -6.4470  -26.7630 C   0  0  0  0  0  0  0  0  0  0  0  0
  -18.6740   -5.4040  -25.2300 C   0  0  0  0  0  3  0  0  0  0  0  0
  -19.6110   -7.1830  -26.5770 C   0  0  0  0  0  3  0  0  0  0  0  0
  -18.5630   -6.6590  -25.8180 C   0  0  0  0  0  0  0  0  0  0  0  0
  -17.1230   -7.5770  -25.6050 Cl  0  0  0  0  0  0  0  0  0  0  0  0
  -21.5540   -7.7740  -28.8130 C   0  0  0  0  0  0  0  0  0  0  0  0
  -21.9330   -8.9190  -29.0320 O   0  0  0  0  0  0  0  0  0  0  0  0
  -20.7550   -7.0110  -29.6550 N   0  0  0  0  0  0  0  0  0  0  0  0
  -20.5400   -6.0760  -29.3420 H   0  0  0  0  0  0  0  0  0  0  0  0
  -20.2130   -7.3910  -30.9140 C   0  0  0  0  0  0  0  0  0  0  0  0
  -19.4420   -8.5430  -31.0870 C   0  0  0  0  0  3  0  0  0  0  0  0
  -20.4520   -6.5760  -32.0620 C   0  0  0  0  0  0  0  0  0  0  0  0
  -18.9080   -8.9430  -32.2650 N   0  0  0  0  0  0  0  0  0  0  0  0
  -21.2100   -5.3730  -32.0760 C   0  0  0  0  0  3  0  0  0  0  0  0
  -19.8970   -6.9840  -33.2990 C   0  0  0  0  0  0  0  0  0  0  0  0
  -19.1470   -8.1580  -33.3320 C   0  0  0  0  0  3  0  0  0  0  0  0
  -21.4020   -4.6290  -33.2470 C   0  0  0  0  0  3  0  0  0  0  0  0
  -20.0940   -6.2280  -34.4690 C   0  0  0  0  0  3  0  0  0  0  0  0
  -20.8430   -5.0560  -34.4420 C   0  0  0  0  0  3  0  0  0  0  0  0
  1  9  1  0  0  0  0
  1  2  2  0  0  0  0
  3  1  2  0  0  0  0
  4  1  1  0  0  0  0
  4  5  1  0  0  0  0
  5  8  1  0  0  0  0
  6  5  1  0  0  0  0
  7  6  1  0  0  0  0
  7  5  1  0  0  0  0
  9 10  1  0  0  0  0
 10 12  1  0  0  0  0
 11 13  1  0  0  0  0
 11  9  1  0  0  0  0
 12 14  1  0  0  0  0
 13 20  1  6  0  0  0
 13 15  1  0  0  0  0
 14 16  2  0  0  0  0
 15 17  1  0  0  0  0
 15 12  2  0  0  0  0
 17 18  2  0  0  0  0
 18 19  1  0  0  0  0
 18 16  1  0  0  0  0
 21 20  2  0  0  0  0
 22 23  1  0  0  0  0
 22 20  1  0  0  0  0
 24 22  1  0  0  0  0
 25 24  1  0  0  0  0
 26 24  2  0  0  0  0
 27 25  2  0  0  0  0
 28 26  1  0  0  0  0
 29 26  1  0  0  0  0
 30 29  2  0  0  0  0
 30 27  1  0  0  0  0
 31 28  2  0  0  0  0
 32 33  2  0  0  0  0
 32 29  1  0  0  0  0
 33 31  1  0  0  0  0
M  END
>  <MODEL>
1

>  <REMARK>
 VINA RESULT:    -7.655      0.000      0.000
 INTER + INTRA:         -10.671
 INTER:                  -9.893
 INTRA:                  -0.778
 UNBOUND:                -0.778
 SMILES CC1(CS(=O)(=O)N2Cc3ccc(Cl)cc3C(C(=O)Nc3cncc4ccccc34)C2)CC1
 SMILES IDX 4 1 5 2 6 3 3 4 2 5 31 6 32 7 1 8 7 9 8 10 30 11 9 12 16 13
 SMILES IDX 10 14 15 15 11 16 14 17 12 18 13 19 17 20 18 21 19 22 20 24
 SMILES IDX 21 25 29 26 22 27 28 28 24 29 23 30 27 31 25 32 26 33
 H PARENT 19 23

>  <TORSDO>
F 5

$$$$
MAT-POS-806462de-1
 OpenBabel07072620443D

 29 32  0  0  1  0  0  0  0  0999 V2000
  -22.4370   -7.3750  -26.2740 C   0  0  0  0  0  1  0  0  0  0  0  0
  -21.4920   -6.4530  -27.0890 C   0  0  1  0  0  0  0  0  0  0  0  0
  -21.6620   -5.0150  -26.5050 C   0  0  0  0  0  2  0  0  0  0  0  0
  -20.7090   -4.7640  -25.4220 N   0  0  0  0  0  0  0  0  0  0  0  0
  -19.1090   -4.7490  -25.9110 S   0  0  0  0  0  0  0  0  0  0  0  0
  -19.0080   -3.9140  -27.0880 O   0  0  0  0  0  0  0  0  0  0  0  0
  -18.3020   -4.5590  -24.7320 O   0  0  0  0  0  0  0  0  0  0  0  0
  -18.9560   -6.4140  -26.4730 C   0  0  0  0  0  0  0  0  0  0  0  0
  -17.6980   -7.0250  -26.3850 C   0  0  0  0  0  3  0  0  0  0  0  0
  -17.5240   -8.3160  -26.8790 C   0  0  0  0  0  3  0  0  0  0  0  0
  -18.6000   -8.9800  -27.4590 C   0  0  0  0  0  0  0  0  0  0  0  0
  -18.3830  -10.5680  -28.0840 Cl  0  0  0  0  0  0  0  0  0  0  0  0
  -19.8570   -8.3710  -27.5370 C   0  0  0  0  0  3  0  0  0  0  0  0
  -20.0720   -7.0720  -27.0280 C   0  0  0  0  0  0  0  0  0  0  0  0
  -20.9280   -4.0840  -24.6960 H   0  0  0  0  0  0  0  0  0  0  0  0
  -21.9710   -6.3780  -28.5630 C   0  0  0  0  0  0  0  0  0  0  0  0
  -22.9210   -7.0470  -28.9560 O   0  0  0  0  0  0  0  0  0  0  0  0
  -21.2460   -5.4830  -29.3430 N   0  0  0  0  0  0  0  0  0  0  0  0
  -20.4960   -4.9790  -28.8880 H   0  0  0  0  0  0  0  0  0  0  0  0
  -21.4200   -5.2030  -30.7270 C   0  0  0  0  0  0  0  0  0  0  0  0
  -20.7820   -5.9300  -31.7340 C   0  0  0  0  0  3  0  0  0  0  0  0
  -22.2710   -4.1270  -31.1280 C   0  0  0  0  0  0  0  0  0  0  0  0
  -20.9070   -5.6900  -33.0600 N   0  0  0  0  0  0  0  0  0  0  0  0
  -23.0110   -3.2870  -30.2500 C   0  0  0  0  0  3  0  0  0  0  0  0
  -22.4060   -3.8620  -32.5140 C   0  0  0  0  0  0  0  0  0  0  0  0
  -21.7090   -4.6660  -33.4110 C   0  0  0  0  0  3  0  0  0  0  0  0
  -23.8230   -2.2500  -30.7220 C   0  0  0  0  0  3  0  0  0  0  0  0
  -23.2250   -2.8160  -32.9760 C   0  0  0  0  0  3  0  0  0  0  0  0
  -23.9280   -2.0130  -32.0840 C   0  0  0  0  0  3  0  0  0  0  0  0
  2 14  1  0  0  0  0
  2  3  1  0  0  0  0
  2  1  1  1  0  0  0
  3  4  1  0  0  0  0
  4 15  1  0  0  0  0
  5  4  1  0  0  0  0
  5  7  2  0  0  0  0
  6  5  2  0  0  0  0
  8  9  1  0  0  0  0
  8  5  1  0  0  0  0
 10  9  2  0  0  0  0
 11 10  1  0  0  0  0
 12 11  1  0  0  0  0
 13 11  2  0  0  0  0
 13 14  1  0  0  0  0
 14  8  2  0  0  0  0
 16  2  1  0  0  0  0
 17 16  2  0  0  0  0
 18 19  1  0  0  0  0
 18 16  1  0  0  0  0
 20 18  1  0  0  0  0
 21 20  2  0  0  0  0
 22 20  1  0  0  0  0
 22 24  1  0  0  0  0
 23 21  1  0  0  0  0
 25 22  2  0  0  0  0
 26 23  2  0  0  0  0
 26 25  1  0  0  0  0
 27 24  2  0  0  0  0
 28 25  1  0  0  0  0
 28 29  2  0  0  0  0
 29 27  1  0  0  0  0
M  END
>  <MODEL>
1

>  <REMARK>
 VINA RESULT:    -7.807      0.000      0.000
 INTER + INTRA:          -9.605
 INTER:                  -8.720
 INTRA:                  -0.885
 UNBOUND:                -0.885
 SMILES C[C@@]1(C(=O)Nc2cncc3ccccc23)CNS(=O)(=O)c2ccc(Cl)cc21
 SMILES IDX 1 1 2 2 16 3 17 4 18 5 19 6 20 7 21 8 22 9 23 10 24 11 25 12
 SMILES IDX 26 13 27 14 3 16 4 17 5 18 6 20 7 21 15 22 8 23 14 24 10 25
 SMILES IDX 9 26 13 27 11 28 12 29
 H PARENT 17 15 5 19

>  <TORSDO>
F 2

$$$$
MAT-POS-806462de-2
 OpenBabel07072620443D

 29 32  0  0  1  0  0  0  0  0999 V2000
  -21.6500   -4.7280  -25.7620 C   0  0  0  0  0  1  0  0  0  0  0  0
  -21.0600   -5.7500  -26.7660 C   0  0  2  0  0  0  0  0  0  0  0  0
  -22.1310   -6.8560  -26.9240 C   0  0  0  0  0  2  0  0  0  0  0  0
  -21.5650   -8.0600  -27.5850 N   0  0  0  0  0  0  0  0  0  0  0  0
  -20.4770   -8.8900  -26.5740 S   0  0  0  0  0  0  0  0  0  0  0  0
  -19.7980   -9.8410  -27.4200 O   0  0  0  0  0  0  0  0  0  0  0  0
  -21.2040   -9.2710  -25.3880 O   0  0  0  0  0  0  0  0  0  0  0  0
  -19.3450   -7.6030  -26.1330 C   0  0  0  0  0  0  0  0  0  0  0  0
  -18.0710   -8.0030  -25.7050 C   0  0  0  0  0  3  0  0  0  0  0  0
  -17.1090   -7.0460  -25.3900 C   0  0  0  0  0  3  0  0  0  0  0  0
  -17.4200   -5.6970  -25.5150 C   0  0  0  0  0  0  0  0  0  0  0  0
  -16.2310   -4.5090  -25.1450 Cl  0  0  0  0  0  0  0  0  0  0  0  0
  -18.6870   -5.2970  -25.9480 C   0  0  0  0  0  3  0  0  0  0  0  0
  -19.6900   -6.2410  -26.2580 C   0  0  0  0  0  0  0  0  0  0  0  0
  -22.2990   -8.7320  -27.8380 H   0  0  0  0  0  0  0  0  0  0  0  0
  -20.8910   -5.0680  -28.1510 C   0  0  0  0  0  0  0  0  0  0  0  0
  -20.1300   -4.1170  -28.3080 O   0  0  0  0  0  0  0  0  0  0  0  0
  -21.7050   -5.6110  -29.1370 N   0  0  0  0  0  0  0  0  0  0  0  0
  -22.5530   -6.0490  -28.7790 H   0  0  0  0  0  0  0  0  0  0  0  0
  -21.7530   -5.2020  -30.4940 C   0  0  0  0  0  0  0  0  0  0  0  0
  -20.9400   -5.9130  -31.3830 C   0  0  0  0  0  3  0  0  0  0  0  0
  -22.5140   -4.1180  -31.0130 C   0  0  0  0  0  0  0  0  0  0  0  0
  -20.8820   -5.7080  -32.7150 N   0  0  0  0  0  0  0  0  0  0  0  0
  -23.2640   -3.1900  -30.2460 C   0  0  0  0  0  3  0  0  0  0  0  0
  -22.4780   -3.8960  -32.4110 C   0  0  0  0  0  0  0  0  0  0  0  0
  -21.6660   -4.7200  -33.1930 C   0  0  0  0  0  3  0  0  0  0  0  0
  -23.9900   -2.1500  -30.8370 C   0  0  0  0  0  3  0  0  0  0  0  0
  -23.2170   -2.8530  -32.9980 C   0  0  0  0  0  3  0  0  0  0  0  0
  -23.9760   -1.9900  -32.2140 C   0  0  0  0  0  3  0  0  0  0  0  0
  2 14  1  0  0  0  0
  2  1  1  1  0  0  0
  3  2  1  0  0  0  0
  4  3  1  0  0  0  0
  4  5  1  0  0  0  0
  5  8  1  0  0  0  0
  5  7  2  0  0  0  0
  6  5  2  0  0  0  0
  8  9  1  0  0  0  0
  9 10  2  0  0  0  0
 11 10  1  0  0  0  0
 11 12  1  0  0  0  0
 13 11  2  0  0  0  0
 14  8  2  0  0  0  0
 14 13  1  0  0  0  0
 15  4  1  0  0  0  0
 16  2  1  0  0  0  0
 17 16  2  0  0  0  0
 18 19  1  0  0  0  0
 18 16  1  0  0  0  0
 20 18  1  0  0  0  0
 21 20  2  0  0  0  0
 22 20  1  0  0  0  0
 22 24  1  0  0  0  0
 23 21  1  0  0  0  0
 25 22  2  0  0  0  0
 26 23  2  0  0  0  0
 26 25  1  0  0  0  0
 27 24  2  0  0  0  0
 28 25  1  0  0  0  0
 28 29  2  0  0  0  0
 29 27  1  0  0  0  0
M  END
>  <MODEL>
1

>  <REMARK>
 VINA RESULT:    -7.781      0.000      0.000
 INTER + INTRA:          -9.319
 INTER:                  -8.690
 INTRA:                  -0.629
 UNBOUND:                -0.629
 SMILES C[C@]1(C(=O)Nc2cncc3ccccc23)CNS(=O)(=O)c2ccc(Cl)cc21
 SMILES IDX 1 1 2 2 16 3 17 4 18 5 19 6 20 7 21 8 22 9 23 10 24 11 25 12
 SMILES IDX 26 13 27 14 3 16 4 17 5 18 6 20 7 21 15 22 8 23 14 24 10 25
 SMILES IDX 9 26 13 27 11 28 12 29
 H PARENT 17 15 5 19

>  <TORSDO>
F 2

$$$$
MAT-POS-865c3497-1
 OpenBabel07072620443D

 27 30  0  0  1  0  0  0  0  0999 V2000
  -16.5660   -7.2060  -24.9270 O   0  0  0  0  0  0  0  0  0  0  0  0
  -17.4320   -6.5810  -25.5230 C   0  0  0  0  0  0  0  0  0  0  0  0
  -17.8800   -5.3690  -25.0580 N   0  0  0  0  0  0  0  0  0  0  0  0
  -19.1400   -4.8080  -25.4890 C   0  0  0  0  0  2  0  0  0  0  0  0
  -19.3400   -4.9170  -27.0040 C   0  0  1  0  0  3  0  0  0  0  0  0
  -18.9570   -6.2980  -27.5140 C   0  0  0  0  0  0  0  0  0  0  0  0
  -19.4280   -6.7830  -28.7480 C   0  0  0  0  0  3  0  0  0  0  0  0
  -19.0430   -8.0450  -29.2050 C   0  0  0  0  0  0  0  0  0  0  0  0
  -19.6540   -8.6310  -30.7020 Cl  0  0  0  0  0  0  0  0  0  0  0  0
  -18.1680   -8.8320  -28.4610 C   0  0  0  0  0  3  0  0  0  0  0  0
  -17.6600   -8.3490  -27.2560 C   0  0  0  0  0  3  0  0  0  0  0  0
  -18.0430   -7.0850  -26.7850 C   0  0  0  0  0  0  0  0  0  0  0  0
  -17.5060   -5.1180  -24.1490 H   0  0  0  0  0  0  0  0  0  0  0  0
  -20.7780   -4.4890  -27.3090 C   0  0  0  0  0  0  0  0  0  0  0  0
  -20.9970   -3.6660  -28.1930 O   0  0  0  0  0  0  0  0  0  0  0  0
  -21.7340   -5.0690  -26.4900 N   0  0  0  0  0  0  0  0  0  0  0  0
  -21.4070   -5.7790  -25.8520 H   0  0  0  0  0  0  0  0  0  0  0  0
  -23.1370   -4.8390  -26.5000 C   0  0  0  0  0  0  0  0  0  0  0  0
  -23.9770   -5.3380  -27.4980 C   0  0  0  0  0  3  0  0  0  0  0  0
  -23.7320   -4.0570  -25.4620 C   0  0  0  0  0  0  0  0  0  0  0  0
  -25.3130   -5.1330  -27.5540 N   0  0  0  0  0  0  0  0  0  0  0  0
  -23.0380   -3.4770  -24.3650 C   0  0  0  0  0  3  0  0  0  0  0  0
  -25.1300   -3.8370  -25.5110 C   0  0  0  0  0  0  0  0  0  0  0  0
  -25.8510   -4.3930  -26.5650 C   0  0  0  0  0  3  0  0  0  0  0  0
  -23.6950   -2.7220  -23.3870 C   0  0  0  0  0  3  0  0  0  0  0  0
  -25.7800   -3.0770  -24.5220 C   0  0  0  0  0  3  0  0  0  0  0  0
  -25.0650   -2.5220  -23.4650 C   0  0  0  0  0  3  0  0  0  0  0  0
  2  3  1  0  0  0  0
  2  1  2  0  0  0  0
  3 13  1  0  0  0  0
  4  3  1  0  0  0  0
  5 14  1  1  0  0  0
  5  4  1  0  0  0  0
  6  5  1  0  0  0  0
  6 12  1  0  0  0  0
  7  6  2  0  0  0  0
  8  7  1  0  0  0  0
  8 10  2  0  0  0  0
  9  8  1  0  0  0  0
 10 11  1  0  0  0  0
 11 12  2  0  0  0  0
 12  2  1  0  0  0  0
 14 16  1  0  0  0  0
 15 14  2  0  0  0  0
 16 17  1  0  0  0  0
 18 16  1  0  0  0  0
 18 20  1  0  0  0  0
 19 18  2  0  0  0  0
 20 22  1  0  0  0  0
 21 19  1  0  0  0  0
 21 24  2  0  0  0  0
 22 25  2  0  0  0  0
 23 20  2  0  0  0  0
 23 26  1  0  0  0  0
 24 23  1  0  0  0  0
 26 27  2  0  0  0  0
 27 25  1  0  0  0  0
M  END
>  <MODEL>
1

>  <REMARK>
 VINA RESULT:    -7.699      0.000      0.000
 INTER + INTRA:          -9.265
 INTER:                  -8.599
 INTRA:                  -0.667
 UNBOUND:                -0.667
 SMILES O=C1NC[C@H](C(=O)Nc2cncc3ccccc23)c2cc(Cl)ccc21
 SMILES IDX 1 1 2 2 3 3 4 4 5 5 19 6 20 7 21 8 22 9 23 10 24 11 25 12
 SMILES IDX 6 14 7 15 8 16 9 18 10 19 18 20 11 21 17 22 13 23 12 24
 SMILES IDX 16 25 14 26 15 27
 H PARENT 3 13 8 17

>  <TORSDO>
F 2

$$$$
MAT-POS-865c3497-2
 OpenBabel07072620443D

 27 30  0  0  1  0  0  0  0  0999 V2000
  -16.0390   -5.2940  -25.2730 O   0  0  0  0  0  0  0  0  0  0  0  0
  -17.2060   -5.1500  -25.6140 C   0  0  0  0  0  0  0  0  0  0  0  0
  -17.7030   -3.9140  -25.9430 N   0  0  0  0  0  0  0  0  0  0  0  0
  -18.9150   -3.7620  -26.7120 C   0  0  0  0  0  2  0  0  0  0  0  0
  -20.0360   -4.6870  -26.2260 C   0  0  2  0  0  3  0  0  0  0  0  0
  -19.5180   -6.0950  -25.9710 C   0  0  0  0  0  0  0  0  0  0  0  0
  -20.3860   -7.2010  -25.9290 C   0  0  0  0  0  3  0  0  0  0  0  0
  -19.8890   -8.4810  -25.6690 C   0  0  0  0  0  0  0  0  0  0  0  0
  -20.9640   -9.8240  -25.6520 Cl  0  0  0  0  0  0  0  0  0  0  0  0
  -18.5330   -8.6790  -25.4230 C   0  0  0  0  0  3  0  0  0  0  0  0
  -17.6660   -7.5850  -25.4210 C   0  0  0  0  0  3  0  0  0  0  0  0
  -18.1530   -6.2980  -25.6850 C   0  0  0  0  0  0  0  0  0  0  0  0
  -16.9970   -3.1860  -25.9730 H   0  0  0  0  0  0  0  0  0  0  0  0
  -21.1810   -4.5920  -27.2350 C   0  0  0  0  0  0  0  0  0  0  0  0
  -22.2740   -5.0830  -26.9700 O   0  0  0  0  0  0  0  0  0  0  0  0
  -20.8730   -3.8880  -28.3890 N   0  0  0  0  0  0  0  0  0  0  0  0
  -19.9100   -3.6000  -28.4950 H   0  0  0  0  0  0  0  0  0  0  0  0
  -21.7330   -3.5930  -29.4820 C   0  0  0  0  0  0  0  0  0  0  0  0
  -22.8150   -2.7170  -29.3750 C   0  0  0  0  0  3  0  0  0  0  0  0
  -21.4930   -4.1970  -30.7540 C   0  0  0  0  0  0  0  0  0  0  0  0
  -23.6510   -2.3960  -30.3890 N   0  0  0  0  0  0  0  0  0  0  0  0
  -20.4480   -5.1150  -31.0470 C   0  0  0  0  0  3  0  0  0  0  0  0
  -22.3620   -3.8690  -31.8230 C   0  0  0  0  0  0  0  0  0  0  0  0
  -23.4040   -2.9760  -31.5790 C   0  0  0  0  0  3  0  0  0  0  0  0
  -20.2790   -5.6660  -32.3230 C   0  0  0  0  0  3  0  0  0  0  0  0
  -22.1830   -4.4270  -33.1020 C   0  0  0  0  0  3  0  0  0  0  0  0
  -21.1450   -5.3210  -33.3500 C   0  0  0  0  0  3  0  0  0  0  0  0
  2  1  2  0  0  0  0
  3  2  1  0  0  0  0
  4  5  1  0  0  0  0
  4  3  1  0  0  0  0
  5 14  1  6  0  0  0
  5  6  1  0  0  0  0
  6  7  2  0  0  0  0
  6 12  1  0  0  0  0
  7  8  1  0  0  0  0
  8  9  1  0  0  0  0
  8 10  2  0  0  0  0
 10 11  1  0  0  0  0
 12  2  1  0  0  0  0
 12 11  2  0  0  0  0
 13  3  1  0  0  0  0
 14 15  2  0  0  0  0
 16 14  1  0  0  0  0
 17 16  1  0  0  0  0
 18 19  1  0  0  0  0
 18 16  1  0  0  0  0
 20 18  2  0  0  0  0
 21 19  2  0  0  0  0
 22 20  1  0  0  0  0
 23 24  2  0  0  0  0
 23 20  1  0  0  0  0
 24 21  1  0  0  0  0
 25 22  2  0  0  0  0
 26 23  1  0  0  0  0
 27 26  2  0  0  0  0
 27 25  1  0  0  0  0
M  END
>  <MODEL>
1

>  <REMARK>
 VINA RESULT:    -8.539      0.000      0.000
 INTER + INTRA:          -9.869
 INTER:                  -9.538
 INTRA:                  -0.331
 UNBOUND:                -0.331
 SMILES O=C1NC[C@@H](C(=O)Nc2cncc3ccccc23)c2cc(Cl)ccc21
 SMILES IDX 1 1 2 2 3 3 4 4 5 5 19 6 20 7 21 8 22 9 23 10 24 11 25 12
 SMILES IDX 6 14 7 15 8 16 9 18 10 19 18 20 11 21 17 22 13 23 12 24
 SMILES IDX 16 25 14 26 15 27
 H PARENT 3 13 8 17

>  <TORSDO>
F 2

$$$$
MAT-POS-8695a11f-1
 OpenBabel07072620443D

 25 28  0  0  1  0  0  0  0  0999 V2000
  -19.6920   -3.8370  -27.8760 O   0  0  0  0  0  0  0  0  0  0  0  0
  -20.5840   -4.6220  -27.5820 C   0  0  0  0  0  0  0  0  0  0  0  0
  -21.7560   -4.8980  -28.3000 N   0  0  0  0  0  0  0  0  0  0  0  0
  -22.5700   -5.8780  -27.6200 C   0  0  0  0  0  2  0  0  0  0  0  0
  -21.6120   -6.5820  -26.6780 C   0  0  0  0  0  2  0  0  0  0  0  0
  -20.6080   -5.4900  -26.3050 C   0  0  2  0  0  0  0  0  0  0  0  0
  -22.2030   -4.2350  -29.4750 C   0  0  0  0  0  0  0  0  0  0  0  0
  -23.0630   -3.1400  -29.3300 C   0  0  0  0  0  3  0  0  0  0  0  0
  -21.8460   -4.6130  -30.8020 C   0  0  0  0  0  0  0  0  0  0  0  0
  -23.6190   -2.4410  -30.3420 N   0  0  0  0  0  0  0  0  0  0  0  0
  -20.8910   -5.6020  -31.1530 C   0  0  0  0  0  3  0  0  0  0  0  0
  -22.4360   -3.9060  -31.8790 C   0  0  0  0  0  0  0  0  0  0  0  0
  -23.3050   -2.8530  -31.5860 C   0  0  0  0  0  3  0  0  0  0  0  0
  -20.5940   -5.9170  -32.4830 C   0  0  0  0  0  3  0  0  0  0  0  0
  -22.1380   -4.2320  -33.2150 C   0  0  0  0  0  3  0  0  0  0  0  0
  -21.2270   -5.2400  -33.5150 C   0  0  0  0  0  3  0  0  0  0  0  0
  -21.1570   -4.6820  -25.2580 O   0  0  0  0  0  0  0  0  0  0  0  0
  -20.5590   -3.9150  -25.1760 H   0  0  0  0  0  0  0  0  0  0  0  0
  -19.2880   -6.0920  -25.8470 C   0  0  0  0  0  0  0  0  0  0  0  0
  -18.1530   -5.3110  -25.5770 C   0  0  0  0  0  3  0  0  0  0  0  0
  -19.1660   -7.4920  -25.7380 C   0  0  0  0  0  3  0  0  0  0  0  0
  -16.9470   -5.9030  -25.1870 C   0  0  0  0  0  3  0  0  0  0  0  0
  -17.9610   -8.0780  -25.3500 C   0  0  0  0  0  0  0  0  0  0  0  0
  -16.8510   -7.2880  -25.0720 C   0  0  0  0  0  3  0  0  0  0  0  0
  -17.8460   -9.7900  -25.2210 Cl  0  0  0  0  0  0  0  0  0  0  0  0
  1  2  2  0  0  0  0
  2  6  1  0  0  0  0
  3  4  1  0  0  0  0
  3  2  1  0  0  0  0
  4  5  1  0  0  0  0
  5  6  1  0  0  0  0
  6 19  1  0  0  0  0
  6 17  1  1  0  0  0
  7  8  1  0  0  0  0
  7  3  1  0  0  0  0
  9  7  2  0  0  0  0
 10  8  2  0  0  0  0
 11  9  1  0  0  0  0
 12 13  2  0  0  0  0
 12  9  1  0  0  0  0
 13 10  1  0  0  0  0
 14 11  2  0  0  0  0
 15 12  1  0  0  0  0
 16 15  2  0  0  0  0
 16 14  1  0  0  0  0
 17 18  1  0  0  0  0
 19 21  2  0  0  0  0
 19 20  1  0  0  0  0
 20 22  2  0  0  0  0
 21 23  1  0  0  0  0
 22 24  1  0  0  0  0
 23 25  1  0  0  0  0
 23 24  2  0  0  0  0
M  END
>  <MODEL>
1

>  <REMARK>
 VINA RESULT:    -8.173      0.000      0.000
 INTER + INTRA:          -9.893
 INTER:                  -9.367
 INTRA:                  -0.525
 UNBOUND:                -0.525
 SMILES O=C1N(c2cncc3ccccc23)CC[C@@]1(O)c1cccc(Cl)c1
 SMILES IDX 1 1 2 2 3 3 14 4 15 5 16 6 4 7 5 8 13 9 6 10 12 11 8 12 7 13
 SMILES IDX 11 14 9 15 10 16 17 17 18 19 19 20 24 21 20 22 22 23 21 24
 SMILES IDX 23 25
 H PARENT 17 18

>  <TORSDO>
F 3

$$$$
MAT-POS-8695a11f-3
 OpenBabel07072620443D

 25 28  0  0  1  0  0  0  0  0999 V2000
  -19.8250   -4.7860  -29.5510 O   0  0  0  0  0  0  0  0  0  0  0  0
  -20.8400   -4.9870  -28.8960 C   0  0  0  0  0  0  0  0  0  0  0  0
  -21.0610   -6.0150  -27.9610 N   0  0  0  0  0  0  0  0  0  0  0  0
  -22.2380   -5.6990  -27.1770 C   0  0  0  0  0  2  0  0  0  0  0  0
  -23.1120   -4.9110  -28.1320 C   0  0  0  0  0  2  0  0  0  0  0  0
  -22.0960   -4.0910  -28.9280 C   0  0  1  0  0  0  0  0  0  0  0  0
  -20.0130   -6.7910  -27.3820 C   0  0  0  0  0  0  0  0  0  0  0  0
  -19.9530   -8.1720  -27.5960 C   0  0  0  0  0  3  0  0  0  0  0  0
  -18.9730   -6.1990  -26.6120 C   0  0  0  0  0  0  0  0  0  0  0  0
  -18.9430   -8.9740  -27.1890 N   0  0  0  0  0  0  0  0  0  0  0  0
  -18.9510   -4.8500  -26.1800 C   0  0  0  0  0  3  0  0  0  0  0  0
  -17.9020   -7.0210  -26.1880 C   0  0  0  0  0  0  0  0  0  0  0  0
  -17.9430   -8.3770  -26.5100 C   0  0  0  0  0  3  0  0  0  0  0  0
  -17.8910   -4.3280  -25.4320 C   0  0  0  0  0  3  0  0  0  0  0  0
  -16.8350   -6.4860  -25.4420 C   0  0  0  0  0  3  0  0  0  0  0  0
  -16.8270   -5.1440  -25.0750 C   0  0  0  0  0  3  0  0  0  0  0  0
  -21.7770   -2.9010  -28.2000 O   0  0  0  0  0  0  0  0  0  0  0  0
  -20.8520   -2.6910  -28.4330 H   0  0  0  0  0  0  0  0  0  0  0  0
  -22.6330   -3.7210  -30.3020 C   0  0  0  0  0  0  0  0  0  0  0  0
  -22.2900   -4.5100  -31.4180 C   0  0  0  0  0  3  0  0  0  0  0  0
  -23.4250   -2.5810  -30.5180 C   0  0  0  0  0  3  0  0  0  0  0  0
  -22.7390   -4.1840  -32.7000 C   0  0  0  0  0  3  0  0  0  0  0  0
  -23.8710   -2.2590  -31.8030 C   0  0  0  0  0  0  0  0  0  0  0  0
  -23.5330   -3.0560  -32.8930 C   0  0  0  0  0  3  0  0  0  0  0  0
  -24.8410   -0.8570  -32.0430 Cl  0  0  0  0  0  0  0  0  0  0  0  0
  1  2  2  0  0  0  0
  2  3  1  0  0  0  0
  3  7  1  0  0  0  0
  3  4  1  0  0  0  0
  5  4  1  0  0  0  0
  6  2  1  0  0  0  0
  6 17  1  1  0  0  0
  6  5  1  0  0  0  0
  7  9  1  0  0  0  0
  8  7  2  0  0  0  0
  8 10  1  0  0  0  0
  9 12  2  0  0  0  0
  9 11  1  0  0  0  0
 10 13  2  0  0  0  0
 11 14  2  0  0  0  0
 12 15  1  0  0  0  0
 13 12  1  0  0  0  0
 14 16  1  0  0  0  0
 15 16  2  0  0  0  0
 18 17  1  0  0  0  0
 19  6  1  0  0  0  0
 20 19  2  0  0  0  0
 21 19  1  0  0  0  0
 22 20  1  0  0  0  0
 23 21  2  0  0  0  0
 24 22  2  0  0  0  0
 24 23  1  0  0  0  0
 25 23  1  0  0  0  0
M  END
>  <MODEL>
1

>  <REMARK>
 VINA RESULT:    -7.878      0.000      0.000
 INTER + INTRA:          -9.229
 INTER:                  -9.029
 INTRA:                  -0.200
 UNBOUND:                -0.200
 SMILES O=C1N(c2cncc3ccccc23)CC[C@]1(O)c1cccc(Cl)c1
 SMILES IDX 1 1 2 2 3 3 14 4 15 5 16 6 4 7 5 8 13 9 6 10 12 11 8 12 7 13
 SMILES IDX 11 14 9 15 10 16 17 17 18 19 19 20 24 21 20 22 22 23 21 24
 SMILES IDX 23 25
 H PARENT 17 18

>  <TORSDO>
F 3

$$$$
MAT-POS-8a69d52e-2
 OpenBabel07072620443D

 26 29  0  0  1  0  0  0  0  0999 V2000
  -23.9530   -2.2370  -32.3590 C   0  0  0  0  0  1  0  0  0  0  0  0
  -23.2300   -3.5760  -32.2880 C   0  0  2  0  0  3  0  0  0  0  0  0
  -22.5600   -3.7610  -30.9320 C   0  0  0  0  0  2  0  0  0  0  0  0
  -21.8920   -5.1400  -30.8770 C   0  0  1  0  0  3  0  0  0  0  0  0
  -21.2520   -5.5040  -32.2030 C   0  0  0  0  0  0  0  0  0  0  0  0
  -20.4580   -6.6570  -32.3260 C   0  0  0  0  0  3  0  0  0  0  0  0
  -19.8480   -6.9660  -33.5430 C   0  0  0  0  0  0  0  0  0  0  0  0
  -18.8650   -8.3710  -33.6740 Cl  0  0  0  0  0  0  0  0  0  0  0  0
  -20.0250   -6.1400  -34.6510 C   0  0  0  0  0  3  0  0  0  0  0  0
  -20.8310   -5.0070  -34.5430 C   0  0  0  0  0  3  0  0  0  0  0  0
  -21.4570   -4.7050  -33.3340 C   0  0  0  0  0  0  0  0  0  0  0  0
  -22.2420   -3.5840  -33.3270 O   0  0  0  0  0  0  0  0  0  0  0  0
  -20.9130   -5.1730  -29.6980 C   0  0  0  0  0  0  0  0  0  0  0  0
  -20.1230   -4.2480  -29.5290 O   0  0  0  0  0  0  0  0  0  0  0  0
  -21.0020   -6.3180  -28.9240 N   0  0  0  0  0  0  0  0  0  0  0  0
  -21.7380   -6.9610  -29.1740 H   0  0  0  0  0  0  0  0  0  0  0  0
  -20.2210   -6.6640  -27.7890 C   0  0  0  0  0  0  0  0  0  0  0  0
  -20.3680   -6.0320  -26.5530 C   0  0  0  0  0  3  0  0  0  0  0  0
  -19.2340   -7.6910  -27.8960 C   0  0  0  0  0  0  0  0  0  0  0  0
  -19.6400   -6.3210  -25.4480 N   0  0  0  0  0  0  0  0  0  0  0  0
  -18.9510   -8.4430  -29.0690 C   0  0  0  0  0  3  0  0  0  0  0  0
  -18.4680   -8.0020  -26.7470 C   0  0  0  0  0  0  0  0  0  0  0  0
  -18.7170   -7.2930  -25.5740 C   0  0  0  0  0  3  0  0  0  0  0  0
  -17.9670   -9.4360  -29.0950 C   0  0  0  0  0  3  0  0  0  0  0  0
  -17.4800   -9.0030  -26.7840 C   0  0  0  0  0  3  0  0  0  0  0  0
  -17.2310   -9.7160  -27.9530 C   0  0  0  0  0  3  0  0  0  0  0  0
  2  1  1  1  0  0  0
  2  3  1  0  0  0  0
  3  4  1  0  0  0  0
  4 13  1  1  0  0  0
  5  4  1  0  0  0  0
  6  5  1  0  0  0  0
  7  6  2  0  0  0  0
  8  7  1  0  0  0  0
  9 10  2  0  0  0  0
  9  7  1  0  0  0  0
 10 11  1  0  0  0  0
 11 12  1  0  0  0  0
 11  5  2  0  0  0  0
 12  2  1  0  0  0  0
 13 14  2  0  0  0  0
 13 15  1  0  0  0  0
 15 17  1  0  0  0  0
 16 15  1  0  0  0  0
 17 18  1  0  0  0  0
 18 20  2  0  0  0  0
 19 17  2  0  0  0  0
 19 22  1  0  0  0  0
 21 19  1  0  0  0  0
 22 23  2  0  0  0  0
 23 20  1  0  0  0  0
 24 21  2  0  0  0  0
 24 26  1  0  0  0  0
 25 22  1  0  0  0  0
 26 25  2  0  0  0  0
M  END
>  <MODEL>
1

>  <REMARK>
 VINA RESULT:    -7.485      0.000      0.000
 INTER + INTRA:          -9.102
 INTER:                  -8.360
 INTRA:                  -0.742
 UNBOUND:                -0.742
 SMILES C[C@@H]1C[C@H](C(=O)Nc2cncc3ccccc23)c2cc(Cl)ccc2O1
 SMILES IDX 1 1 2 2 3 3 4 4 18 5 19 6 20 7 21 8 22 9 23 10 24 11 25 12
 SMILES IDX 5 13 6 14 7 15 8 17 9 18 17 19 10 20 16 21 12 22 11 23 15 24
 SMILES IDX 13 25 14 26
 H PARENT 7 16

>  <TORSDO>
F 2

$$$$
MAT-POS-8a69d52e-5
 OpenBabel07072620443D

 26 29  0  0  1  0  0  0  0  0999 V2000
  -23.4510   -4.1510  -27.5430 C   0  0  0  0  0  1  0  0  0  0  0  0
  -23.2160   -4.3430  -29.0400 C   0  0  1  0  0  3  0  0  0  0  0  0
  -23.1960   -3.0140  -29.7920 C   0  0  0  0  0  2  0  0  0  0  0  0
  -23.1850   -3.2070  -31.2090 O   0  0  0  0  0  0  0  0  0  0  0  0
  -22.3020   -4.1440  -31.6690 C   0  0  0  0  0  0  0  0  0  0  0  0
  -22.0760   -4.1240  -33.0480 C   0  0  0  0  0  3  0  0  0  0  0  0
  -21.2190   -5.0540  -33.6360 C   0  0  0  0  0  3  0  0  0  0  0  0
  -20.5970   -6.0100  -32.8400 C   0  0  0  0  0  0  0  0  0  0  0  0
  -19.5440   -7.1680  -33.5550 Cl  0  0  0  0  0  0  0  0  0  0  0  0
  -20.8270   -6.0430  -31.4630 C   0  0  0  0  0  3  0  0  0  0  0  0
  -21.6870   -5.1080  -30.8610 C   0  0  0  0  0  0  0  0  0  0  0  0
  -21.9430   -5.1470  -29.3670 C   0  0  1  0  0  3  0  0  0  0  0  0
  -20.6980   -4.6610  -28.5950 C   0  0  0  0  0  0  0  0  0  0  0  0
  -20.1510   -3.5930  -28.8490 O   0  0  0  0  0  0  0  0  0  0  0  0
  -20.2810   -5.5670  -27.6290 N   0  0  0  0  0  0  0  0  0  0  0  0
  -20.8310   -6.4070  -27.5370 H   0  0  0  0  0  0  0  0  0  0  0  0
  -19.1660   -5.4510  -26.7560 C   0  0  0  0  0  0  0  0  0  0  0  0
  -18.7320   -4.2260  -26.2430 C   0  0  0  0  0  3  0  0  0  0  0  0
  -18.4420   -6.6220  -26.3710 C   0  0  0  0  0  0  0  0  0  0  0  0
  -17.6800   -4.0680  -25.4050 N   0  0  0  0  0  0  0  0  0  0  0  0
  -18.7330   -7.9480  -26.7940 C   0  0  0  0  0  3  0  0  0  0  0  0
  -17.3390   -6.4690  -25.4960 C   0  0  0  0  0  0  0  0  0  0  0  0
  -17.0150   -5.1860  -25.0570 C   0  0  0  0  0  3  0  0  0  0  0  0
  -17.9750   -9.0450  -26.3730 C   0  0  0  0  0  3  0  0  0  0  0  0
  -16.5830   -7.5790  -25.0790 C   0  0  0  0  0  3  0  0  0  0  0  0
  -16.9000   -8.8610  -25.5140 C   0  0  0  0  0  3  0  0  0  0  0  0
  2  1  1  1  0  0  0
  3  2  1  0  0  0  0
  4  3  1  0  0  0  0
  5  4  1  0  0  0  0
  5 11  1  0  0  0  0
  6  5  2  0  0  0  0
  7  6  1  0  0  0  0
  7  8  2  0  0  0  0
  8 10  1  0  0  0  0
  9  8  1  0  0  0  0
 10 11  2  0  0  0  0
 11 12  1  0  0  0  0
 12  2  1  0  0  0  0
 12 13  1  1  0  0  0
 13 15  1  0  0  0  0
 14 13  2  0  0  0  0
 15 16  1  0  0  0  0
 15 17  1  0  0  0  0
 17 19  2  0  0  0  0
 17 18  1  0  0  0  0
 18 20  2  0  0  0  0
 19 22  1  0  0  0  0
 20 23  1  0  0  0  0
 21 24  2  0  0  0  0
 21 19  1  0  0  0  0
 22 25  1  0  0  0  0
 22 23  2  0  0  0  0
 24 26  1  0  0  0  0
 26 25  2  0  0  0  0
M  END
>  <MODEL>
1

>  <REMARK>
 VINA RESULT:    -7.956      0.000      0.000
 INTER + INTRA:          -9.148
 INTER:                  -8.886
 INTRA:                  -0.262
 UNBOUND:                -0.262
 SMILES C[C@H]1COc2ccc(Cl)cc2[C@H]1C(=O)Nc1cncc2ccccc12
 SMILES IDX 1 1 2 2 3 3 4 4 5 5 6 6 7 7 8 8 9 9 10 10 11 11 12 12 13 13
 SMILES IDX 14 14 15 15 16 17 17 18 25 19 18 20 24 21 20 22 19 23 23 24
 SMILES IDX 21 25 22 26
 H PARENT 15 16

>  <TORSDO>
F 2

$$$$
MAT-POS-8a69d52e-7
 OpenBabel07072620443D

 26 29  0  0  1  0  0  0  0  0999 V2000
  -22.1380   -4.4630  -26.2920 C   0  0  0  0  0  1  0  0  0  0  0  0
  -20.9750   -5.3730  -25.8990 C   0  0  2  0  0  3  0  0  0  0  0  0
  -19.7720   -4.5800  -25.3930 C   0  0  0  0  0  2  0  0  0  0  0  0
  -18.7710   -5.4340  -24.8330 O   0  0  0  0  0  0  0  0  0  0  0  0
  -18.4630   -6.5440  -25.5710 C   0  0  0  0  0  0  0  0  0  0  0  0
  -17.2970   -7.2100  -25.1870 C   0  0  0  0  0  3  0  0  0  0  0  0
  -16.8990   -8.3720  -25.8470 C   0  0  0  0  0  3  0  0  0  0  0  0
  -17.6780   -8.8690  -26.8860 C   0  0  0  0  0  0  0  0  0  0  0  0
  -17.2010  -10.3070  -27.7030 Cl  0  0  0  0  0  0  0  0  0  0  0  0
  -18.8500   -8.2140  -27.2690 C   0  0  0  0  0  3  0  0  0  0  0  0
  -19.2570   -7.0400  -26.6120 C   0  0  0  0  0  0  0  0  0  0  0  0
  -20.5330   -6.3330  -27.0220 C   0  0  2  0  0  3  0  0  0  0  0  0
  -20.3460   -5.6330  -28.3840 C   0  0  0  0  0  0  0  0  0  0  0  0
  -19.3930   -4.8970  -28.6120 O   0  0  0  0  0  0  0  0  0  0  0  0
  -21.3490   -5.9510  -29.2900 N   0  0  0  0  0  0  0  0  0  0  0  0
  -22.0690   -6.5740  -28.9590 H   0  0  0  0  0  0  0  0  0  0  0  0
  -21.4770   -5.5040  -30.6330 C   0  0  0  0  0  0  0  0  0  0  0  0
  -20.8310   -6.1280  -31.7020 C   0  0  0  0  0  3  0  0  0  0  0  0
  -22.2960   -4.3700  -30.9280 C   0  0  0  0  0  0  0  0  0  0  0  0
  -20.9180   -5.7350  -32.9950 N   0  0  0  0  0  0  0  0  0  0  0  0
  -23.0300   -3.6130  -29.9740 C   0  0  0  0  0  3  0  0  0  0  0  0
  -22.3970   -3.9510  -32.2770 C   0  0  0  0  0  0  0  0  0  0  0  0
  -21.6950   -4.6640  -33.2460 C   0  0  0  0  0  3  0  0  0  0  0  0
  -23.8120   -2.5120  -30.3420 C   0  0  0  0  0  3  0  0  0  0  0  0
  -23.1860   -2.8430  -32.6360 C   0  0  0  0  0  3  0  0  0  0  0  0
  -23.8890   -2.1270  -31.6720 C   0  0  0  0  0  3  0  0  0  0  0  0
  2  1  1  6  0  0  0
  2  3  1  0  0  0  0
  3  4  1  0  0  0  0
  5  6  1  0  0  0  0
  5  4  1  0  0  0  0
  7  6  2  0  0  0  0
  8  7  1  0  0  0  0
  9  8  1  0  0  0  0
 10  8  2  0  0  0  0
 10 11  1  0  0  0  0
 11  5  2  0  0  0  0
 12 13  1  6  0  0  0
 12 11  1  0  0  0  0
 12  2  1  0  0  0  0
 14 13  2  0  0  0  0
 15 16  1  0  0  0  0
 15 13  1  0  0  0  0
 17 15  1  0  0  0  0
 18 17  2  0  0  0  0
 19 17  1  0  0  0  0
 19 21  1  0  0  0  0
 20 18  1  0  0  0  0
 22 19  2  0  0  0  0
 23 20  2  0  0  0  0
 23 22  1  0  0  0  0
 24 21  2  0  0  0  0
 25 22  1  0  0  0  0
 25 26  2  0  0  0  0
 26 24  1  0  0  0  0
M  END
>  <MODEL>
1

>  <REMARK>
 VINA RESULT:    -7.517      0.000      0.000
 INTER + INTRA:          -9.115
 INTER:                  -8.396
 INTRA:                  -0.719
 UNBOUND:                -0.719
 SMILES C[C@@H]1COc2ccc(Cl)cc2[C@@H]1C(=O)Nc1cncc2ccccc12
 SMILES IDX 1 1 2 2 3 3 4 4 5 5 6 6 7 7 8 8 9 9 10 10 11 11 12 12 13 13
 SMILES IDX 14 14 15 15 16 17 17 18 25 19 18 20 24 21 20 22 19 23 23 24
 SMILES IDX 21 25 22 26
 H PARENT 15 16

>  <TORSDO>
F 2

$$$$
MAT-POS-96f51285-1
 OpenBabel07072620443D

 29 32  0  0  1  0  0  0  0  0999 V2000
  -20.4210   -5.4970  -27.6040 N   0  0  0  0  0  0  0  0  0  0  0  0
  -20.7640   -4.6520  -28.6490 C   0  0  0  0  0  0  0  0  0  0  0  0
  -20.1350   -3.6540  -28.9870 O   0  0  0  0  0  0  0  0  0  0  0  0
  -21.1260   -6.2070  -27.4270 H   0  0  0  0  0  0  0  0  0  0  0  0
  -19.2990   -5.4320  -26.7450 C   0  0  0  0  0  0  0  0  0  0  0  0
  -18.2130   -9.0710  -26.4740 C   0  0  0  0  0  0  0  0  0  0  0  0
  -17.1160   -8.9330  -25.6320 C   0  0  0  0  0  3  0  0  0  0  0  0
  -18.9400   -7.9320  -26.8470 C   0  0  0  0  0  3  0  0  0  0  0  0
  -16.7520   -7.6670  -25.1720 C   0  0  0  0  0  3  0  0  0  0  0  0
  -18.6010   -6.6270  -26.4000 C   0  0  0  0  0  0  0  0  0  0  0  0
  -17.4800   -6.5230  -25.5460 C   0  0  0  0  0  0  0  0  0  0  0  0
  -17.1150   -5.2590  -25.0850 C   0  0  0  0  0  3  0  0  0  0  0  0
  -18.8260   -4.2300  -26.2170 C   0  0  0  0  0  3  0  0  0  0  0  0
  -17.7550   -4.1170  -25.3970 N   0  0  0  0  0  0  0  0  0  0  0  0
  -18.6820  -10.2430  -26.9990 O   0  0  0  0  0  0  0  0  0  0  0  0
  -19.3590  -10.1640  -28.2480 C   0  0  0  0  0  1  0  0  0  0  0  0
  -22.0640   -5.1330  -29.3990 C   0  0  1  0  0  0  0  0  0  0  0  0
  -23.2400   -4.2650  -28.9220 C   0  0  0  0  0  2  0  0  0  0  0  0
  -21.8460   -5.0010  -30.8990 C   0  0  0  0  0  0  0  0  0  0  0  0
  -23.2610   -2.9460  -29.6750 C   0  0  0  0  0  2  0  0  0  0  0  0
  -20.9560   -5.8500  -31.5820 C   0  0  0  0  0  3  0  0  0  0  0  0
  -22.5400   -4.0300  -31.6320 C   0  0  0  0  0  0  0  0  0  0  0  0
  -23.4390   -3.1600  -31.0780 O   0  0  0  0  0  0  0  0  0  0  0  0
  -20.7850   -5.7350  -32.9610 C   0  0  0  0  0  0  0  0  0  0  0  0
  -22.3770   -3.9300  -33.0150 C   0  0  0  0  0  3  0  0  0  0  0  0
  -21.4960   -4.7800  -33.6820 C   0  0  0  0  0  3  0  0  0  0  0  0
  -19.7000   -6.7900  -33.7780 Cl  0  0  0  0  0  0  0  0  0  0  0  0
  -22.2250   -6.5280  -29.0260 O   0  0  0  0  0  0  0  0  0  0  0  0
  -23.5330   -6.9370  -28.6440 C   0  0  0  0  0  1  0  0  0  0  0  0
  1  4  1  0  0  0  0
  1  5  1  0  0  0  0
  2  1  1  0  0  0  0
  3  2  2  0  0  0  0
  5 10  2  0  0  0  0
  5 13  1  0  0  0  0
  6  7  1  0  0  0  0
  7  9  2  0  0  0  0
  8  6  2  0  0  0  0
  8 10  1  0  0  0  0
 10 11  1  0  0  0  0
 11  9  1  0  0  0  0
 11 12  2  0  0  0  0
 13 14  2  0  0  0  0
 14 12  1  0  0  0  0
 15  6  1  0  0  0  0
 16 15  1  0  0  0  0
 17 28  1  1  0  0  0
 17 18  1  0  0  0  0
 17  2  1  0  0  0  0
 19 17  1  0  0  0  0
 20 18  1  0  0  0  0
 21 19  1  0  0  0  0
 22 23  1  0  0  0  0
 22 19  2  0  0  0  0
 23 20  1  0  0  0  0
 24 21  2  0  0  0  0
 25 22  1  0  0  0  0
 26 25  2  0  0  0  0
 26 24  1  0  0  0  0
 27 24  1  0  0  0  0
 28 29  1  0  0  0  0
M  END
>  <MODEL>
1

>  <REMARK>
 VINA RESULT:    -7.406      0.000      0.000
 INTER + INTRA:          -9.768
 INTER:                  -9.138
 INTRA:                  -0.629
 UNBOUND:                -0.629
 SMILES COc1ccc2cncc(NC(=O)C3(OC)CCOc4ccc(Cl)cc43)c2c1
 SMILES IDX 11 1 12 2 13 3 10 5 3 6 4 7 28 8 5 9 27 10 6 11 7 12 9 13
 SMILES IDX 8 14 2 15 1 16 14 17 17 18 26 19 18 20 25 21 20 22 19 23
 SMILES IDX 23 24 21 25 22 26 24 27 15 28 16 29
 H PARENT 11 4

>  <TORSDO>
F 4

$$$$
MAT-POS-96f51285-5
 OpenBabel07072620443D

 27 30  0  0  1  0  0  0  0  0999 V2000
  -20.8880   -8.2390  -29.6760 O   0  0  0  0  0  0  0  0  0  0  0  0
  -20.1490   -7.3720  -30.1300 C   0  0  0  0  0  0  0  0  0  0  0  0
  -19.4580   -7.4520  -31.3310 N   0  0  0  0  0  0  0  0  0  0  0  0
  -18.9000   -6.6480  -31.5780 H   0  0  0  0  0  0  0  0  0  0  0  0
  -19.9250   -6.0400  -29.4030 C   0  0  2  0  0  3  0  0  0  0  0  0
  -19.7940   -6.3080  -27.9010 C   0  0  0  0  0  2  0  0  0  0  0  0
  -21.0230   -5.0210  -29.6510 C   0  0  0  0  0  0  0  0  0  0  0  0
  -19.7520   -4.9810  -27.1700 C   0  0  0  0  0  2  0  0  0  0  0  0
  -21.5930   -4.8440  -30.9250 C   0  0  0  0  0  3  0  0  0  0  0  0
  -21.4590   -4.1910  -28.6040 C   0  0  0  0  0  0  0  0  0  0  0  0
  -20.9690   -4.2500  -27.3270 O   0  0  0  0  0  0  0  0  0  0  0  0
  -22.5950   -3.8910  -31.1300 C   0  0  0  0  0  0  0  0  0  0  0  0
  -22.4680   -3.2500  -28.8090 C   0  0  0  0  0  3  0  0  0  0  0  0
  -23.0300   -3.1040  -30.0700 C   0  0  0  0  0  0  0  0  0  0  0  0
  -23.2720   -3.7040  -32.7020 Cl  0  0  0  0  0  0  0  0  0  0  0  0
  -23.9900   -2.1830  -30.2480 F   0  0  0  0  0  0  0  0  0  0  0  0
  -19.4560   -8.5300  -32.2590 C   0  0  0  0  0  0  0  0  0  0  0  0
  -19.1650   -9.8450  -31.8880 C   0  0  0  0  0  3  0  0  0  0  0  0
  -19.7600   -8.2850  -33.6320 C   0  0  0  0  0  0  0  0  0  0  0  0
  -19.1500  -10.9000  -32.7360 N   0  0  0  0  0  0  0  0  0  0  0  0
  -20.0800   -7.0190  -34.1860 C   0  0  0  0  0  3  0  0  0  0  0  0
  -19.7500   -9.3840  -34.5300 C   0  0  0  0  0  0  0  0  0  0  0  0
  -19.4410  -10.6440  -34.0250 C   0  0  0  0  0  3  0  0  0  0  0  0
  -20.3660   -6.8690  -35.5430 C   0  0  0  0  0  0  0  0  0  0  0  0
  -20.0410   -9.2110  -35.8960 C   0  0  0  0  0  3  0  0  0  0  0  0
  -20.3500   -7.9520  -36.4030 C   0  0  0  0  0  3  0  0  0  0  0  0
  -20.6600   -5.6520  -36.0180 F   0  0  0  0  0  0  0  0  0  0  0  0
  2  1  2  0  0  0  0
  3  2  1  0  0  0  0
  4  3  1  0  0  0  0
  5  2  1  6  0  0  0
  5  6  1  0  0  0  0
  6  8  1  0  0  0  0
  7  5  1  0  0  0  0
  7 10  1  0  0  0  0
  9  7  2  0  0  0  0
 10 11  1  0  0  0  0
 11  8  1  0  0  0  0
 12  9  1  0  0  0  0
 12 14  2  0  0  0  0
 13 10  2  0  0  0  0
 14 13  1  0  0  0  0
 15 12  1  0  0  0  0
 16 14  1  0  0  0  0
 17 18  1  0  0  0  0
 17  3  1  0  0  0  0
 19 17  2  0  0  0  0
 20 18  2  0  0  0  0
 21 19  1  0  0  0  0
 22 23  2  0  0  0  0
 22 19  1  0  0  0  0
 23 20  1  0  0  0  0
 24 21  2  0  0  0  0
 25 22  1  0  0  0  0
 26 25  2  0  0  0  0
 26 24  1  0  0  0  0
 27 24  1  0  0  0  0
M  END
>  <MODEL>
1

>  <REMARK>
 VINA RESULT:    -7.748      0.000      0.000
 INTER + INTRA:          -9.220
 INTER:                  -8.654
 INTRA:                  -0.566
 UNBOUND:                -0.566
 SMILES O=C(Nc1cncc2ccc(F)cc12)C1CCOc2cc(F)c(Cl)cc21
 SMILES IDX 1 1 2 2 3 3 15 5 16 6 26 7 17 8 25 9 19 10 18 11 23 12 20 13
 SMILES IDX 21 14 24 15 22 16 4 17 5 18 14 19 6 20 13 21 8 22 7 23 11 24
 SMILES IDX 9 25 10 26 12 27
 H PARENT 3 4

>  <TORSDO>
F 2

$$$$
MAT-POS-993cdc78-1
 OpenBabel07072620443D

 28 31  0  0  1  0  0  0  0  0999 V2000
  -21.2470   -5.6410  -26.8050 C   0  0  2  0  0  0  0  0  0  0  0  0
  -22.2790   -6.7480  -27.0840 C   0  0  0  0  0  2  0  0  0  0  0  0
  -22.0320   -7.9690  -26.2170 C   0  0  0  0  0  2  0  0  0  0  0  0
  -20.7080   -8.4770  -26.3760 O   0  0  0  0  0  0  0  0  0  0  0  0
  -19.7360   -7.5520  -26.1110 C   0  0  0  0  0  0  0  0  0  0  0  0
  -18.5060   -8.0580  -25.6920 C   0  0  0  0  0  3  0  0  0  0  0  0
  -17.4670   -7.1830  -25.3960 C   0  0  0  0  0  0  0  0  0  0  0  0
  -16.2980   -7.6890  -24.9780 F   0  0  0  0  0  0  0  0  0  0  0  0
  -17.6430   -5.8070  -25.5220 C   0  0  0  0  0  0  0  0  0  0  0  0
  -16.3640   -4.7180  -25.1450 Cl  0  0  0  0  0  0  0  0  0  0  0  0
  -18.8680   -5.3010  -25.9590 C   0  0  0  0  0  3  0  0  0  0  0  0
  -19.9300   -6.1740  -26.2700 C   0  0  0  0  0  0  0  0  0  0  0  0
  -21.7880   -4.6160  -25.9280 O   0  0  0  0  0  0  0  0  0  0  0  0
  -23.1830   -4.3610  -26.0240 C   0  0  0  0  0  1  0  0  0  0  0  0
  -20.9990   -4.9350  -28.1890 C   0  0  0  0  0  0  0  0  0  0  0  0
  -20.2800   -3.9470  -28.3050 O   0  0  0  0  0  0  0  0  0  0  0  0
  -21.6480   -5.5860  -29.2300 N   0  0  0  0  0  0  0  0  0  0  0  0
  -22.2470   -6.3390  -28.9110 H   0  0  0  0  0  0  0  0  0  0  0  0
  -21.6240   -5.2840  -30.6120 C   0  0  0  0  0  0  0  0  0  0  0  0
  -20.8710   -6.0210  -31.5290 C   0  0  0  0  0  3  0  0  0  0  0  0
  -22.4010   -4.1970  -31.1120 C   0  0  0  0  0  0  0  0  0  0  0  0
  -20.8300   -5.7820  -32.8610 N   0  0  0  0  0  0  0  0  0  0  0  0
  -23.2200   -3.3430  -30.3270 C   0  0  0  0  0  3  0  0  0  0  0  0
  -22.3700   -3.9400  -32.5040 C   0  0  0  0  0  0  0  0  0  0  0  0
  -21.5780   -4.7560  -33.3090 C   0  0  0  0  0  3  0  0  0  0  0  0
  -23.9650   -2.3030  -30.8920 C   0  0  0  0  0  3  0  0  0  0  0  0
  -23.1260   -2.8930  -33.0630 C   0  0  0  0  0  3  0  0  0  0  0  0
  -23.9230   -2.0820  -32.2610 C   0  0  0  0  0  3  0  0  0  0  0  0
  1 15  1  6  0  0  0
  1 12  1  0  0  0  0
  1 13  1  0  0  0  0
  2  1  1  0  0  0  0
  2  3  1  0  0  0  0
  4  3  1  0  0  0  0
  4  5  1  0  0  0  0
  5  6  1  0  0  0  0
  6  7  2  0  0  0  0
  7  8  1  0  0  0  0
  9  7  1  0  0  0  0
  9 10  1  0  0  0  0
 11  9  2  0  0  0  0
 12  5  2  0  0  0  0
 12 11  1  0  0  0  0
 14 13  1  0  0  0  0
 16 15  2  0  0  0  0
 17 18  1  0  0  0  0
 17 15  1  0  0  0  0
 19 17  1  0  0  0  0
 20 19  2  0  0  0  0
 21 19  1  0  0  0  0
 21 23  1  0  0  0  0
 22 20  1  0  0  0  0
 24 21  2  0  0  0  0
 25 22  2  0  0  0  0
 25 24  1  0  0  0  0
 26 23  2  0  0  0  0
 27 24  1  0  0  0  0
 27 28  2  0  0  0  0
 28 26  1  0  0  0  0
M  END
>  <MODEL>
1

>  <REMARK>
 VINA RESULT:    -7.705      0.000      0.000
 INTER + INTRA:          -9.597
 INTER:                  -9.057
 INTRA:                  -0.540
 UNBOUND:                -0.540
 SMILES CO[C@]1(C(=O)Nc2cncc3ccccc23)CCOc2cc(F)c(Cl)cc21
 SMILES IDX 3 1 17 2 18 3 19 4 20 5 21 6 22 7 23 8 24 9 25 10 26 11
 SMILES IDX 27 12 2 13 1 14 4 15 5 16 6 17 7 19 8 20 16 21 9 22 15 23
 SMILES IDX 11 24 10 25 14 26 12 27 13 28
 H PARENT 6 18

>  <TORSDO>
F 3

$$$$
MAT-POS-a13804f0-3
 OpenBabel07072620443D

 26 29  0  0  1  0  0  0  0  0999 V2000
  -20.3080   -6.8070  -28.4040 C   0  0  2  0  0  3  0  0  0  0  0  0
  -21.3410   -5.7390  -28.7600 C   0  0  0  0  0  2  0  0  0  0  0  0
  -20.6670   -4.3990  -28.9970 C   0  0  0  0  0  2  0  0  0  0  0  0
  -19.9190   -3.9440  -27.8680 O   0  0  0  0  0  0  0  0  0  0  0  0
  -19.1760   -4.8830  -27.2120 C   0  0  0  0  0  0  0  0  0  0  0  0
  -18.2610   -4.3890  -26.2830 C   0  0  0  0  0  3  0  0  0  0  0  0
  -17.4620   -5.2700  -25.5620 C   0  0  0  0  0  0  0  0  0  0  0  0
  -16.5830   -4.7680  -24.6810 F   0  0  0  0  0  0  0  0  0  0  0  0
  -17.5690   -6.6440  -25.7560 C   0  0  0  0  0  0  0  0  0  0  0  0
  -16.5770   -7.7380  -24.8720 Cl  0  0  0  0  0  0  0  0  0  0  0  0
  -18.4900   -7.1430  -26.6780 C   0  0  0  0  0  3  0  0  0  0  0  0
  -19.3070   -6.2630  -27.4110 C   0  0  0  0  0  0  0  0  0  0  0  0
  -19.6810   -7.3960  -29.6780 C   0  0  0  0  0  0  0  0  0  0  0  0
  -18.5840   -7.9430  -29.6120 O   0  0  0  0  0  0  0  0  0  0  0  0
  -20.4680   -7.3130  -30.8130 N   0  0  0  0  0  0  0  0  0  0  0  0
  -21.3340   -6.8050  -30.7220 H   0  0  0  0  0  0  0  0  0  0  0  0
  -20.1780   -7.8090  -32.1120 C   0  0  0  0  0  0  0  0  0  0  0  0
  -19.8050   -9.1340  -32.3490 C   0  0  0  0  0  3  0  0  0  0  0  0
  -20.2720   -6.9360  -33.2390 C   0  0  0  0  0  0  0  0  0  0  0  0
  -19.5260   -9.6510  -33.5690 N   0  0  0  0  0  0  0  0  0  0  0  0
  -20.6360   -5.5630  -33.1900 C   0  0  0  0  0  3  0  0  0  0  0  0
  -19.9810   -7.4650  -34.5200 C   0  0  0  0  0  0  0  0  0  0  0  0
  -19.6210   -8.8080  -34.6150 C   0  0  0  0  0  3  0  0  0  0  0  0
  -20.7050   -4.7710  -34.3410 C   0  0  0  0  0  3  0  0  0  0  0  0
  -20.0540   -6.6600  -35.6710 C   0  0  0  0  0  3  0  0  0  0  0  0
  -20.4140   -5.3190  -35.5820 C   0  0  0  0  0  3  0  0  0  0  0  0
  1 13  1  6  0  0  0
  1 12  1  0  0  0  0
  2  1  1  0  0  0  0
  3  2  1  0  0  0  0
  3  4  1  0  0  0  0
  4  5  1  0  0  0  0
  5  6  1  0  0  0  0
  6  7  2  0  0  0  0
  7  8  1  0  0  0  0
  9  7  1  0  0  0  0
  9 10  1  0  0  0  0
 11  9  2  0  0  0  0
 12  5  2  0  0  0  0
 12 11  1  0  0  0  0
 13 14  2  0  0  0  0
 15 16  1  0  0  0  0
 15 13  1  0  0  0  0
 17 15  1  0  0  0  0
 18 17  1  0  0  0  0
 19 21  1  0  0  0  0
 19 17  2  0  0  0  0
 20 18  2  0  0  0  0
 22 19  1  0  0  0  0
 23 22  2  0  0  0  0
 23 20  1  0  0  0  0
 24 21  2  0  0  0  0
 25 26  2  0  0  0  0
 25 22  1  0  0  0  0
 26 24  1  0  0  0  0
M  END
>  <MODEL>
1

>  <REMARK>
 VINA RESULT:    -8.371      0.000      0.000
 INTER + INTRA:          -9.542
 INTER:                  -9.350
 INTRA:                  -0.192
 UNBOUND:                -0.192
 SMILES O=C(Nc1cncc2ccccc12)[C@@H]1CCOc2cc(F)c(Cl)cc21
 SMILES IDX 14 1 15 2 16 3 17 4 18 5 19 6 20 7 21 8 22 9 23 10 24 11
 SMILES IDX 25 12 2 13 1 14 3 15 4 17 5 18 13 19 6 20 12 21 8 22 7 23
 SMILES IDX 11 24 9 25 10 26
 H PARENT 3 16

>  <TORSDO>
F 2

$$$$
MAT-POS-a13804f0-4
 OpenBabel07072620443D

 38 42  0  0  1  0  0  0  0  0999 V2000
  -21.6720   -4.7350  -26.2750 N   0  0  0  0  0  0  0  0  0  0  0  0
  -23.0150   -4.8180  -25.9890 C   0  0  0  0  0  0  0  0  0  0  0  0
  -23.6270   -5.8710  -26.1720 O   0  0  0  0  0  0  0  0  0  0  0  0
  -21.1960   -3.8430  -26.2400 H   0  0  0  0  0  0  0  0  0  0  0  0
  -20.8840   -5.9180  -26.6100 C   0  0  1  0  0  3  0  0  0  0  0  0
  -21.0130   -6.2650  -28.1250 C   0  0  0  0  0  0  0  0  0  0  0  0
  -21.0220   -7.4210  -28.5410 O   0  0  0  0  0  0  0  0  0  0  0  0
  -21.1270   -5.1310  -28.9260 N   0  0  0  0  0  0  0  0  0  0  0  0
  -21.0570   -4.2430  -28.4290 H   0  0  0  0  0  0  0  0  0  0  0  0
  -21.2830   -5.0720  -30.3370 C   0  0  0  0  0  0  0  0  0  0  0  0
  -20.6040   -5.9300  -31.2060 C   0  0  0  0  0  3  0  0  0  0  0  0
  -22.1630   -4.1090  -30.9200 C   0  0  0  0  0  0  0  0  0  0  0  0
  -20.7150   -5.9140  -32.5560 N   0  0  0  0  0  0  0  0  0  0  0  0
  -22.9400   -3.1630  -30.2000 C   0  0  0  0  0  3  0  0  0  0  0  0
  -22.2870   -4.0810  -32.3310 C   0  0  0  0  0  0  0  0  0  0  0  0
  -21.5470   -4.9950  -33.0780 C   0  0  0  0  0  3  0  0  0  0  0  0
  -23.7790   -2.2460  -30.8420 C   0  0  0  0  0  3  0  0  0  0  0  0
  -23.1340   -3.1550  -32.9680 C   0  0  0  0  0  3  0  0  0  0  0  0
  -23.8750   -2.2410  -32.2260 C   0  0  0  0  0  3  0  0  0  0  0  0
  -19.4580   -5.7170  -26.1160 C   0  0  0  0  0  0  0  0  0  0  0  0
  -18.8800   -4.4360  -26.1670 C   0  0  0  0  0  3  0  0  0  0  0  0
  -18.6690   -6.7900  -25.6690 C   0  0  0  0  0  3  0  0  0  0  0  0
  -17.5590   -4.2310  -25.7640 C   0  0  0  0  0  3  0  0  0  0  0  0
  -17.3490   -6.5780  -25.2670 C   0  0  0  0  0  0  0  0  0  0  0  0
  -16.7920   -5.3030  -25.3130 C   0  0  0  0  0  3  0  0  0  0  0  0
  -16.3990   -7.9070  -24.7250 Cl  0  0  0  0  0  0  0  0  0  0  0  0
  -23.6800   -3.5000  -25.5440 C   0  0  2  0  0  3  0  0  0  0  0  0
  -23.8780   -3.3850  -24.0370 C   0  0  0  0  0  2  0  0  0  0  0  0
  -24.9690   -3.3160  -26.1490 O   0  0  0  0  0  0  0  0  0  0  0  0
  -25.1940   -2.6530  -23.9180 C   0  0  0  0  0  2  0  0  0  0  0  0
  -25.9550   -3.1790  -25.1200 C   0  0  2  0  0  3  0  0  0  0  0  0
  -26.6670   -4.5060  -24.7550 C   0  0  0  0  0  0  0  0  0  0  0  0
  -26.3850   -5.1260  -23.7270 O   0  0  0  0  0  0  0  0  0  0  0  0
  -27.6710   -4.9320  -25.5990 N   0  0  0  0  0  0  0  0  0  0  0  0
  -28.0990   -4.3230  -26.8480 C   0  0  0  0  0  2  0  0  0  0  0  0
  -28.3870   -6.1720  -25.3440 C   0  0  0  0  0  2  0  0  0  0  0  0
  -29.3720   -5.0730  -27.2150 C   0  0  0  0  0  2  0  0  0  0  0  0
  -29.1180   -6.4640  -26.6460 C   0  0  0  0  0  2  0  0  0  0  0  0
  1  4  1  0  0  0  0
  1  2  1  0  0  0  0
  3  2  2  0  0  0  0
  5  6  1  6  0  0  0
  5  1  1  0  0  0  0
  5 20  1  0  0  0  0
  7  6  2  0  0  0  0
  8  9  1  0  0  0  0
  8  6  1  0  0  0  0
 10  8  1  0  0  0  0
 11 10  2  0  0  0  0
 12 10  1  0  0  0  0
 12 14  1  0  0  0  0
 13 11  1  0  0  0  0
 15 12  2  0  0  0  0
 16 13  2  0  0  0  0
 16 15  1  0  0  0  0
 17 14  2  0  0  0  0
 18 15  1  0  0  0  0
 18 19  2  0  0  0  0
 19 17  1  0  0  0  0
 20 22  1  0  0  0  0
 21 20  2  0  0  0  0
 21 23  1  0  0  0  0
 22 24  2  0  0  0  0
 23 25  2  0  0  0  0
 24 26  1  0  0  0  0
 25 24  1  0  0  0  0
 27  2  1  1  0  0  0
 27 28  1  0  0  0  0
 28 30  1  0  0  0  0
 29 27  1  0  0  0  0
 29 31  1  0  0  0  0
 31 32  1  1  0  0  0
 31 30  1  0  0  0  0
 32 33  2  0  0  0  0
 34 36  1  0  0  0  0
 34 32  1  0  0  0  0
 35 34  1  0  0  0  0
 37 35  1  0  0  0  0
 37 38  1  0  0  0  0
 38 36  1  0  0  0  0
M  END
>  <MODEL>
1

>  <REMARK>
 VINA RESULT:    -9.691      0.000      0.000
 INTER + INTRA:         -14.071
 INTER:                 -13.090
 INTRA:                  -0.981
 UNBOUND:                -0.981
 SMILES O=C(Nc1cncc2ccccc12)C(NC(=O)[C@@H]1CC[C@H](C(=O)N2CCCC2)O1)c1cccc(Cl)c1
 SMILES IDX 15 1 16 2 17 3 14 5 2 6 1 7 3 8 4 10 5 11 13 12 6 13 12 14
 SMILES IDX 8 15 7 16 11 17 9 18 10 19 30 20 31 21 36 22 32 23 34 24
 SMILES IDX 33 25 35 26 18 27 19 28 29 29 20 30 21 31 22 32 23 33 24 34
 SMILES IDX 25 35 28 36 26 37 27 38
 H PARENT 15 4 3 9

>  <TORSDO>
F 6

$$$$
MAT-POS-a54ce14d-2
 OpenBabel07072620443D

 32 35  0  0  1  0  0  0  0  0999 V2000
  -19.9890   -4.9400  -27.6950 N   0  0  0  0  0  0  0  0  0  0  0  0
  -19.6950   -5.7000  -28.9030 C   0  0  0  0  0  2  0  0  0  0  0  0
  -19.6090   -7.2010  -28.6130 C   0  0  2  0  0  3  0  0  0  0  0  0
  -18.6600   -7.4560  -27.4560 C   0  0  0  0  0  0  0  0  0  0  0  0
  -17.9980   -8.6860  -27.2950 C   0  0  0  0  0  3  0  0  0  0  0  0
  -17.1630   -8.9010  -26.1960 C   0  0  0  0  0  0  0  0  0  0  0  0
  -16.3520  -10.4090  -26.0230 Cl  0  0  0  0  0  0  0  0  0  0  0  0
  -16.9900   -7.9110  -25.2330 C   0  0  0  0  0  3  0  0  0  0  0  0
  -17.6620   -6.6940  -25.3660 C   0  0  0  0  0  3  0  0  0  0  0  0
  -18.4970   -6.4640  -26.4690 C   0  0  0  0  0  0  0  0  0  0  0  0
  -19.2280   -5.1650  -26.5520 C   0  0  0  0  0  0  0  0  0  0  0  0
  -19.1330   -4.3390  -25.6490 O   0  0  0  0  0  0  0  0  0  0  0  0
  -20.6680   -3.6500  -27.8470 C   0  0  0  0  0  2  0  0  0  0  0  0
  -21.9990   -3.7300  -28.6060 C   0  0  0  0  0  0  0  0  0  0  0  0
  -22.1810   -2.7450  -29.5530 N   0  0  0  0  0  0  0  0  0  0  0  0
  -22.8580   -4.5610  -28.3190 O   0  0  0  0  0  0  0  0  0  0  0  0
  -23.4430   -2.5800  -30.2250 C   0  0  0  0  0  1  0  0  0  0  0  0
  -21.5520   -1.9430  -29.5020 H   0  0  0  0  0  0  0  0  0  0  0  0
  -19.2280   -7.8790  -29.9290 C   0  0  0  0  0  0  0  0  0  0  0  0
  -18.1880   -8.5170  -30.0420 O   0  0  0  0  0  0  0  0  0  0  0  0
  -20.1510   -7.6510  -30.9400 N   0  0  0  0  0  0  0  0  0  0  0  0
  -20.9660   -7.1060  -30.6980 H   0  0  0  0  0  0  0  0  0  0  0  0
  -20.0960   -8.1190  -32.2820 C   0  0  0  0  0  0  0  0  0  0  0  0
  -19.9630   -9.4710  -32.6060 C   0  0  0  0  0  3  0  0  0  0  0  0
  -20.1810   -7.1860  -33.3620 C   0  0  0  0  0  0  0  0  0  0  0  0
  -19.9080   -9.9610  -33.8670 N   0  0  0  0  0  0  0  0  0  0  0  0
  -20.3160   -5.7770  -33.2260 C   0  0  0  0  0  3  0  0  0  0  0  0
  -20.1240   -7.6880  -34.6850 C   0  0  0  0  0  0  0  0  0  0  0  0
  -19.9890   -9.0630  -34.8660 C   0  0  0  0  0  3  0  0  0  0  0  0
  -20.3920   -4.9280  -34.3350 C   0  0  0  0  0  3  0  0  0  0  0  0
  -20.2010   -6.8250  -35.7930 C   0  0  0  0  0  3  0  0  0  0  0  0
  -20.3350   -5.4510  -35.6190 C   0  0  0  0  0  3  0  0  0  0  0  0
  1 11  1  0  0  0  0
  2  3  1  0  0  0  0
  2  1  1  0  0  0  0
  3 19  1  6  0  0  0
  3  4  1  0  0  0  0
  4  5  2  0  0  0  0
  4 10  1  0  0  0  0
  5  6  1  0  0  0  0
  6  7  1  0  0  0  0
  6  8  2  0  0  0  0
  9  8  1  0  0  0  0
 10  9  2  0  0  0  0
 11 10  1  0  0  0  0
 11 12  2  0  0  0  0
 13  1  1  0  0  0  0
 14 16  2  0  0  0  0
 14 13  1  0  0  0  0
 15 18  1  0  0  0  0
 15 14  1  0  0  0  0
 17 15  1  0  0  0  0
 20 19  2  0  0  0  0
 21 22  1  0  0  0  0
 21 19  1  0  0  0  0
 23 21  1  0  0  0  0
 24 23  1  0  0  0  0
 25 27  1  0  0  0  0
 25 23  2  0  0  0  0
 26 24  2  0  0  0  0
 28 25  1  0  0  0  0
 29 28  2  0  0  0  0
 29 26  1  0  0  0  0
 30 27  2  0  0  0  0
 31 32  2  0  0  0  0
 31 28  1  0  0  0  0
 32 30  1  0  0  0  0
M  END
>  <MODEL>
1

>  <REMARK>
 VINA RESULT:    -8.145      0.000      0.000
 INTER + INTRA:         -10.296
 INTER:                 -10.050
 INTRA:                  -0.245
 UNBOUND:                -0.245
 SMILES CNC(=O)CN1C[C@@H](C(=O)Nc2cncc3ccccc23)c2cc(Cl)ccc2C1=O
 SMILES IDX 6 1 7 2 8 3 22 4 23 5 24 6 25 7 26 8 27 9 28 10 29 11 30 12
 SMILES IDX 5 13 3 14 2 15 4 16 1 17 9 19 10 20 11 21 12 23 13 24 21 25
 SMILES IDX 14 26 20 27 16 28 15 29 19 30 17 31 18 32
 H PARENT 2 18 11 22

>  <TORSDO>
F 4

$$$$
MAT-POS-a54ce14d-3
 OpenBabel07072620443D

 32 35  0  0  1  0  0  0  0  0999 V2000
  -20.9580   -5.6170  -27.0570 N   0  0  0  0  0  0  0  0  0  0  0  0
  -22.4080   -5.5500  -26.9010 C   0  0  0  0  0  2  0  0  0  0  0  0
  -23.0050   -4.3780  -27.6890 C   0  0  1  0  0  3  0  0  0  0  0  0
  -22.5530   -4.4780  -29.1380 C   0  0  0  0  0  0  0  0  0  0  0  0
  -23.3430   -4.0600  -30.2220 C   0  0  0  0  0  3  0  0  0  0  0  0
  -22.8450   -4.1200  -31.5260 C   0  0  0  0  0  0  0  0  0  0  0  0
  -23.8300   -3.6020  -32.8380 Cl  0  0  0  0  0  0  0  0  0  0  0  0
  -21.5560   -4.5850  -31.7750 C   0  0  0  0  0  3  0  0  0  0  0  0
  -20.7550   -4.9960  -30.7100 C   0  0  0  0  0  3  0  0  0  0  0  0
  -21.2480   -4.9470  -29.3990 C   0  0  0  0  0  0  0  0  0  0  0  0
  -20.3590   -5.3820  -28.2850 C   0  0  0  0  0  0  0  0  0  0  0  0
  -19.1470   -5.4800  -28.4590 O   0  0  0  0  0  0  0  0  0  0  0  0
  -20.1720   -6.1940  -25.9630 C   0  0  0  0  0  2  0  0  0  0  0  0
  -19.1450   -5.2030  -25.4040 C   0  0  0  0  0  0  0  0  0  0  0  0
  -17.8420   -5.4530  -25.7830 N   0  0  0  0  0  0  0  0  0  0  0  0
  -19.4580   -4.3170  -24.6120 O   0  0  0  0  0  0  0  0  0  0  0  0
  -16.7430   -4.7390  -25.1910 C   0  0  0  0  0  1  0  0  0  0  0  0
  -17.6610   -6.3730  -26.1880 H   0  0  0  0  0  0  0  0  0  0  0  0
  -24.5190   -4.3780  -27.4860 C   0  0  0  0  0  0  0  0  0  0  0  0
  -25.1810   -3.3520  -27.6010 O   0  0  0  0  0  0  0  0  0  0  0  0
  -25.0130   -5.6270  -27.1380 N   0  0  0  0  0  0  0  0  0  0  0  0
  -24.3360   -6.3720  -27.0610 H   0  0  0  0  0  0  0  0  0  0  0  0
  -26.3640   -5.9770  -26.8600 C   0  0  0  0  0  0  0  0  0  0  0  0
  -27.2410   -6.4390  -27.8430 C   0  0  0  0  0  3  0  0  0  0  0  0
  -26.8660   -5.8600  -25.5280 C   0  0  0  0  0  0  0  0  0  0  0  0
  -28.5320   -6.7840  -27.6260 N   0  0  0  0  0  0  0  0  0  0  0  0
  -26.1230   -5.4070  -24.4030 C   0  0  0  0  0  3  0  0  0  0  0  0
  -28.2150   -6.2170  -25.2880 C   0  0  0  0  0  0  0  0  0  0  0  0
  -28.9820   -6.6650  -26.3630 C   0  0  0  0  0  3  0  0  0  0  0  0
  -26.6880   -5.3180  -23.1260 C   0  0  0  0  0  3  0  0  0  0  0  0
  -28.7730   -6.1250  -24.0010 C   0  0  0  0  0  3  0  0  0  0  0  0
  -28.0130   -5.6770  -22.9250 C   0  0  0  0  0  3  0  0  0  0  0  0
  1  2  1  0  0  0  0
  1 13  1  0  0  0  0
  3 19  1  6  0  0  0
  3  2  1  0  0  0  0
  4  3  1  0  0  0  0
  5  4  2  0  0  0  0
  6  5  1  0  0  0  0
  7  6  1  0  0  0  0
  8  6  2  0  0  0  0
  8  9  1  0  0  0  0
  9 10  2  0  0  0  0
 10  4  1  0  0  0  0
 10 11  1  0  0  0  0
 11  1  1  0  0  0  0
 12 11  2  0  0  0  0
 13 14  1  0  0  0  0
 14 16  2  0  0  0  0
 15 14  1  0  0  0  0
 15 17  1  0  0  0  0
 18 15  1  0  0  0  0
 19 21  1  0  0  0  0
 20 19  2  0  0  0  0
 21 22  1  0  0  0  0
 21 23  1  0  0  0  0
 23 25  1  0  0  0  0
 24 26  1  0  0  0  0
 24 23  2  0  0  0  0
 25 28  2  0  0  0  0
 25 27  1  0  0  0  0
 26 29  2  0  0  0  0
 27 30  2  0  0  0  0
 28 31  1  0  0  0  0
 29 28  1  0  0  0  0
 30 32  1  0  0  0  0
 31 32  2  0  0  0  0
M  END
>  <MODEL>
1

>  <REMARK>
 VINA RESULT:    -7.930      0.000      0.000
 INTER + INTRA:         -10.635
 INTER:                  -9.784
 INTRA:                  -0.850
 UNBOUND:                -0.850
 SMILES CNC(=O)CN1C[C@H](C(=O)Nc2cncc3ccccc23)c2cc(Cl)ccc2C1=O
 SMILES IDX 6 1 7 2 8 3 22 4 23 5 24 6 25 7 26 8 27 9 28 10 29 11 30 12
 SMILES IDX 5 13 3 14 2 15 4 16 1 17 9 19 10 20 11 21 12 23 13 24 21 25
 SMILES IDX 14 26 20 27 16 28 15 29 19 30 17 31 18 32
 H PARENT 2 18 11 22

>  <TORSDO>
F 4

$$$$
MAT-POS-a5ef2d74-1
 OpenBabel07072620443D

 26 29  0  0  1  0  0  0  0  0999 V2000
  -22.2310   -4.3820  -27.8390 C   0  0  1  0  0  3  0  0  0  0  0  0
  -21.0370   -4.9450  -27.0620 C   0  0  0  0  0  2  0  0  0  0  0  0
  -19.7470   -4.4870  -27.7160 C   0  0  0  0  0  2  0  0  0  0  0  0
  -19.6440   -5.0110  -29.0430 O   0  0  0  0  0  0  0  0  0  0  0  0
  -20.7110   -4.7040  -29.8410 C   0  0  0  0  0  0  0  0  0  0  0  0
  -20.4820   -4.7520  -31.2150 C   0  0  0  0  0  3  0  0  0  0  0  0
  -21.5110   -4.4350  -32.0950 C   0  0  0  0  0  0  0  0  0  0  0  0
  -21.2670   -4.4770  -33.4130 F   0  0  0  0  0  0  0  0  0  0  0  0
  -22.7670   -4.0740  -31.6150 C   0  0  0  0  0  0  0  0  0  0  0  0
  -24.0400   -3.6700  -32.7000 Cl  0  0  0  0  0  0  0  0  0  0  0  0
  -23.0020   -4.0460  -30.2380 C   0  0  0  0  0  3  0  0  0  0  0  0
  -21.9790   -4.3860  -29.3360 C   0  0  0  0  0  0  0  0  0  0  0  0
  -23.5010   -5.1390  -27.4350 C   0  0  0  0  0  0  0  0  0  0  0  0
  -23.5770   -6.3520  -27.6110 O   0  0  0  0  0  0  0  0  0  0  0  0
  -24.4960   -4.3330  -26.9040 N   0  0  0  0  0  0  0  0  0  0  0  0
  -24.2570   -3.3570  -26.7960 H   0  0  0  0  0  0  0  0  0  0  0  0
  -25.7830   -4.7330  -26.4540 C   0  0  0  0  0  0  0  0  0  0  0  0
  -26.8070   -5.1100  -27.3240 C   0  0  0  0  0  3  0  0  0  0  0  0
  -26.0760   -4.7560  -25.0580 C   0  0  0  0  0  0  0  0  0  0  0  0
  -28.0470   -5.4930  -26.9340 N   0  0  0  0  0  0  0  0  0  0  0  0
  -25.1930   -4.4150  -24.0160 C   0  0  0  0  0  3  0  0  0  0  0  0
  -27.3620   -5.1530  -24.6350 C   0  0  0  0  0  0  0  0  0  0  0  0
  -28.2920   -5.5060  -25.6090 C   0  0  0  0  0  3  0  0  0  0  0  0
  -25.4840   -4.4400  -22.6910 N   0  0  0  0  0  0  0  0  0  0  0  0
  -27.6880   -5.1900  -23.2720 C   0  0  0  0  0  3  0  0  0  0  0  0
  -26.7250   -4.8270  -22.3490 C   0  0  0  0  0  3  0  0  0  0  0  0
  1 13  1  6  0  0  0
  1  2  1  0  0  0  0
  3  2  1  0  0  0  0
  4  3  1  0  0  0  0
  5 12  1  0  0  0  0
  5  4  1  0  0  0  0
  6  5  2  0  0  0  0
  7  9  2  0  0  0  0
  7  6  1  0  0  0  0
  8  7  1  0  0  0  0
  9 11  1  0  0  0  0
 10  9  1  0  0  0  0
 11 12  2  0  0  0  0
 12  1  1  0  0  0  0
 13 15  1  0  0  0  0
 14 13  2  0  0  0  0
 15 16  1  0  0  0  0
 15 17  1  0  0  0  0
 17 19  1  0  0  0  0
 18 20  1  0  0  0  0
 18 17  2  0  0  0  0
 19 22  2  0  0  0  0
 19 21  1  0  0  0  0
 20 23  2  0  0  0  0
 21 24  2  0  0  0  0
 22 25  1  0  0  0  0
 23 22  1  0  0  0  0
 24 26  1  0  0  0  0
 25 26  2  0  0  0  0
M  END
>  <MODEL>
1

>  <REMARK>
 VINA RESULT:    -7.319      0.000      0.000
 INTER + INTRA:          -8.736
 INTER:                  -8.175
 INTRA:                  -0.561
 UNBOUND:                -0.561
 SMILES O=C(Nc1cncc2ccncc12)C1CCOc2cc(F)c(Cl)cc21
 SMILES IDX 14 1 15 2 16 3 17 4 18 5 19 6 20 7 21 8 22 9 23 10 24 11
 SMILES IDX 25 12 2 13 1 14 3 15 4 17 5 18 13 19 6 20 12 21 8 22 7 23
 SMILES IDX 11 24 9 25 10 26
 H PARENT 3 16

>  <TORSDO>
F 2

$$$$
MAT-POS-b3e365b9-3
 OpenBabel07072620443D

 22 24  0  0  1  0  0  0  0  0999 V2000
  -21.0440   -3.9900  -29.4640 N   0  0  0  0  0  0  0  0  0  0  0  0
  -21.2470   -4.8510  -28.3930 C   0  0  0  0  0  0  0  0  0  0  0  0
  -22.2830   -5.4660  -28.1610 O   0  0  0  0  0  0  0  0  0  0  0  0
  -20.1270   -3.5720  -29.5420 H   0  0  0  0  0  0  0  0  0  0  0  0
  -21.9740   -3.6500  -30.4770 C   0  0  0  0  0  0  0  0  0  0  0  0
  -21.9430   -4.3520  -31.6980 C   0  0  0  0  0  0  0  0  0  0  0  0
  -22.8640   -4.0100  -32.6990 C   0  0  0  0  0  3  0  0  0  0  0  0
  -23.7760   -2.9960  -32.4610 C   0  0  0  0  0  3  0  0  0  0  0  0
  -22.9360   -2.6470  -30.3450 C   0  0  0  0  0  3  0  0  0  0  0  0
  -23.8320   -2.3060  -31.3070 N   0  0  0  0  0  0  0  0  0  0  0  0
  -20.9630   -5.4580  -31.9770 C   0  0  0  0  0  1  0  0  0  0  0  0
  -20.0040   -4.9880  -27.5030 C   0  0  1  0  0  3  0  0  0  0  0  0
  -20.4090   -4.7790  -26.0410 C   0  0  0  0  0  2  0  0  0  0  0  0
  -19.2840   -6.3150  -27.6500 C   0  0  0  0  0  0  0  0  0  0  0  0
  -19.2090   -5.0620  -25.1600 C   0  0  0  0  0  2  0  0  0  0  0  0
  -19.1170   -6.9360  -28.9010 C   0  0  0  0  0  3  0  0  0  0  0  0
  -18.7150   -6.9300  -26.5230 C   0  0  0  0  0  0  0  0  0  0  0  0
  -18.7890   -6.4230  -25.2540 O   0  0  0  0  0  0  0  0  0  0  0  0
  -18.4330   -8.1500  -29.0070 C   0  0  0  0  0  0  0  0  0  0  0  0
  -18.0440   -8.1500  -26.6360 C   0  0  0  0  0  3  0  0  0  0  0  0
  -17.8990   -8.7620  -27.8780 C   0  0  0  0  0  3  0  0  0  0  0  0
  -18.2450   -8.8890  -30.5500 Cl  0  0  0  0  0  0  0  0  0  0  0  0
  1  2  1  0  0  0  0
  2  3  2  0  0  0  0
  4  1  1  0  0  0  0
  5  9  1  0  0  0  0
  5  1  1  0  0  0  0
  6  5  2  0  0  0  0
  7  8  2  0  0  0  0
  7  6  1  0  0  0  0
  8 10  1  0  0  0  0
 10  9  2  0  0  0  0
 11  6  1  0  0  0  0
 12  2  1  6  0  0  0
 12 13  1  0  0  0  0
 13 15  1  0  0  0  0
 14 12  1  0  0  0  0
 14 17  1  0  0  0  0
 16 14  2  0  0  0  0
 17 18  1  0  0  0  0
 18 15  1  0  0  0  0
 19 16  1  0  0  0  0
 19 21  2  0  0  0  0
 20 17  2  0  0  0  0
 21 20  1  0  0  0  0
 22 19  1  0  0  0  0
M  END
>  <MODEL>
1

>  <REMARK>
 VINA RESULT:    -6.827      0.000      0.000
 INTER + INTRA:          -8.274
 INTER:                  -7.626
 INTRA:                  -0.648
 UNBOUND:                -0.648
 SMILES Cc1ccncc1NC(=O)[C@H]1CCOc2ccc(Cl)cc21
 SMILES IDX 8 1 9 2 10 3 7 5 2 6 3 7 4 8 6 9 5 10 1 11 11 12 12 13 21 14
 SMILES IDX 13 15 20 16 15 17 14 18 18 19 16 20 17 21 19 22
 H PARENT 8 4

>  <TORSDO>
F 2

$$$$
MAT-POS-b3e365b9-4
 OpenBabel07072620443D

 22 24  0  0  1  0  0  0  0  0999 V2000
  -21.0880   -6.3020  -31.2040 N   0  0  0  0  0  0  0  0  0  0  0  0
  -20.5990   -5.6740  -30.0660 C   0  0  0  0  0  0  0  0  0  0  0  0
  -19.7490   -4.7910  -30.0520 O   0  0  0  0  0  0  0  0  0  0  0  0
  -21.7930   -7.0130  -31.0630 H   0  0  0  0  0  0  0  0  0  0  0  0
  -20.7020   -6.0640  -32.5470 C   0  0  0  0  0  0  0  0  0  0  0  0
  -21.2860   -4.9910  -33.2490 C   0  0  0  0  0  0  0  0  0  0  0  0
  -20.9000   -4.7600  -34.5770 C   0  0  0  0  0  3  0  0  0  0  0  0
  -19.9570   -5.5900  -35.1590 C   0  0  0  0  0  3  0  0  0  0  0  0
  -19.7630   -6.8360  -33.2340 C   0  0  0  0  0  3  0  0  0  0  0  0
  -19.3790   -6.6210  -34.5190 N   0  0  0  0  0  0  0  0  0  0  0  0
  -22.3110   -4.0790  -32.6330 C   0  0  0  0  0  1  0  0  0  0  0  0
  -21.2780   -6.1800  -28.7840 C   0  0  2  0  0  3  0  0  0  0  0  0
  -22.6620   -5.5380  -28.6530 C   0  0  0  0  0  2  0  0  0  0  0  0
  -20.4570   -5.9360  -27.5390 C   0  0  0  0  0  0  0  0  0  0  0  0
  -22.5180   -4.1560  -28.0340 C   0  0  0  0  0  2  0  0  0  0  0  0
  -19.2810   -6.6700  -27.3120 C   0  0  0  0  0  3  0  0  0  0  0  0
  -20.8560   -4.9860  -26.5920 C   0  0  0  0  0  0  0  0  0  0  0  0
  -21.9900   -4.2290  -26.7080 O   0  0  0  0  0  0  0  0  0  0  0  0
  -18.5360   -6.4610  -26.1510 C   0  0  0  0  0  0  0  0  0  0  0  0
  -20.1140   -4.7920  -25.4250 C   0  0  0  0  0  3  0  0  0  0  0  0
  -18.9490   -5.5280  -25.2050 C   0  0  0  0  0  3  0  0  0  0  0  0
  -17.1030   -7.3740  -25.8820 Cl  0  0  0  0  0  0  0  0  0  0  0  0
  1  4  1  0  0  0  0
  1  2  1  0  0  0  0
  2  3  2  0  0  0  0
  5  1  1  0  0  0  0
  6 11  1  0  0  0  0
  6  5  2  0  0  0  0
  7  6  1  0  0  0  0
  8  7  2  0  0  0  0
  8 10  1  0  0  0  0
  9  5  1  0  0  0  0
 10  9  2  0  0  0  0
 12  2  1  6  0  0  0
 12 13  1  0  0  0  0
 12 14  1  0  0  0  0
 13 15  1  0  0  0  0
 14 16  2  0  0  0  0
 14 17  1  0  0  0  0
 15 18  1  0  0  0  0
 16 19  1  0  0  0  0
 17 20  2  0  0  0  0
 18 17  1  0  0  0  0
 19 22  1  0  0  0  0
 19 21  2  0  0  0  0
 20 21  1  0  0  0  0
M  END
>  <MODEL>
1

>  <REMARK>
 VINA RESULT:    -6.668      0.000      0.000
 INTER + INTRA:          -7.965
 INTER:                  -7.447
 INTRA:                  -0.517
 UNBOUND:                -0.517
 SMILES Cc1ccncc1NC(=O)[C@@H]1CCOc2ccc(Cl)cc21
 SMILES IDX 8 1 9 2 10 3 7 5 2 6 3 7 4 8 6 9 5 10 1 11 11 12 12 13 21 14
 SMILES IDX 13 15 20 16 15 17 14 18 18 19 16 20 17 21 19 22
 H PARENT 8 4

>  <TORSDO>
F 2

$$$$
MAT-POS-bf364d7a-3
 OpenBabel07072620443D

 35 39  0  0  1  0  0  0  0  0999 V2000
  -20.3680   -6.7600  -30.2470 C   0  0  2  0  0  3  0  0  0  0  0  0
  -21.3370   -6.9310  -29.0680 C   0  0  0  0  0  2  0  0  0  0  0  0
  -21.8820   -5.6140  -28.6670 N   0  0  0  0  0  0  0  0  0  0  0  0
  -22.6830   -4.9640  -29.7240 C   0  0  0  0  0  2  0  0  0  0  0  0
  -22.0550   -5.0580  -31.1020 C   0  0  0  0  0  0  0  0  0  0  0  0
  -22.5860   -4.2770  -32.1410 C   0  0  0  0  0  3  0  0  0  0  0  0
  -22.0190   -4.3060  -33.4160 C   0  0  0  0  0  3  0  0  0  0  0  0
  -20.9070   -5.1050  -33.6580 C   0  0  0  0  0  0  0  0  0  0  0  0
  -20.1940   -5.1280  -35.2220 Cl  0  0  0  0  0  0  0  0  0  0  0  0
  -20.3700   -5.8940  -32.6420 C   0  0  0  0  0  3  0  0  0  0  0  0
  -20.9570   -5.9050  -31.3630 C   0  0  0  0  0  0  0  0  0  0  0  0
  -19.9420   -8.1610  -30.6900 C   0  0  0  0  0  0  0  0  0  0  0  0
  -20.6730   -9.1260  -30.4910 O   0  0  0  0  0  0  0  0  0  0  0  0
  -18.7030   -8.2070  -31.3170 N   0  0  0  0  0  0  0  0  0  0  0  0
  -18.0410   -7.5140  -30.9820 H   0  0  0  0  0  0  0  0  0  0  0  0
  -18.1150   -9.3740  -31.8740 C   0  0  0  0  0  0  0  0  0  0  0  0
  -17.0270   -9.9140  -31.1810 C   0  0  0  0  0  3  0  0  0  0  0  0
  -18.5010   -9.9970  -33.0940 C   0  0  0  0  0  0  0  0  0  0  0  0
  -16.3490  -11.0210  -31.5430 N   0  0  0  0  0  0  0  0  0  0  0  0
  -19.4830   -9.5150  -33.9990 C   0  0  0  0  0  3  0  0  0  0  0  0
  -17.8120  -11.1730  -33.4800 C   0  0  0  0  0  0  0  0  0  0  0  0
  -16.7720  -11.6300  -32.6690 C   0  0  0  0  0  3  0  0  0  0  0  0
  -19.8050  -10.1940  -35.1790 C   0  0  0  0  0  3  0  0  0  0  0  0
  -18.1460  -11.8520  -34.6660 C   0  0  0  0  0  3  0  0  0  0  0  0
  -19.1440  -11.3680  -35.5070 C   0  0  0  0  0  3  0  0  0  0  0  0
  -22.3880   -5.4080  -27.0750 S   0  0  0  0  0  0  0  0  0  0  0  0
  -22.3680   -6.7030  -26.4340 O   0  0  0  0  0  0  0  0  0  0  0  0
  -23.5810   -4.5930  -27.0960 O   0  0  0  0  0  0  0  0  0  0  0  0
  -21.0770   -4.4270  -26.3580 C   0  0  0  0  0  2  0  0  0  0  0  0
  -19.8650   -5.2350  -25.8980 C   0  0  0  0  0  3  0  0  0  0  0  0
  -18.6820   -5.5520  -26.8650 C   0  0  0  0  0  2  0  0  0  0  0  0
  -18.8690   -4.6800  -24.8330 C   0  0  0  0  0  2  0  0  0  0  0  0
  -17.6310   -5.7970  -25.4520 S   0  0  0  0  0  0  0  0  0  0  0  0
  -16.3490   -5.1490  -25.6110 O   0  0  0  0  0  0  0  0  0  0  0  0
  -17.7890   -7.1250  -24.8960 O   0  0  0  0  0  0  0  0  0  0  0  0
  1 12  1  6  0  0  0
  1  2  1  0  0  0  0
  2  3  1  0  0  0  0
  3 26  1  0  0  0  0
  4  3  1  0  0  0  0
  5  4  1  0  0  0  0
  6  5  2  0  0  0  0
  7  6  1  0  0  0  0
  8  7  2  0  0  0  0
  8 10  1  0  0  0  0
  9  8  1  0  0  0  0
 10 11  2  0  0  0  0
 11  5  1  0  0  0  0
 11  1  1  0  0  0  0
 12 13  2  0  0  0  0
 14 15  1  0  0  0  0
 14 12  1  0  0  0  0
 16 14  1  0  0  0  0
 16 17  1  0  0  0  0
 18 16  2  0  0  0  0
 19 17  2  0  0  0  0
 20 18  1  0  0  0  0
 21 18  1  0  0  0  0
 21 22  2  0  0  0  0
 22 19  1  0  0  0  0
 23 20  2  0  0  0  0
 24 21  1  0  0  0  0
 25 23  1  0  0  0  0
 25 24  2  0  0  0  0
 26 27  2  0  0  0  0
 26 29  1  0  0  0  0
 28 26  2  0  0  0  0
 29 30  1  0  0  0  0
 30 32  1  0  0  0  0
 31 30  1  0  0  0  0
 31 33  1  0  0  0  0
 33 35  2  0  0  0  0
 33 32  1  0  0  0  0
 34 33  2  0  0  0  0
M  END
>  <MODEL>
1

>  <REMARK>
 VINA RESULT:    -8.066      0.000      0.000
 INTER + INTRA:         -11.643
 INTER:                 -10.424
 INTRA:                  -1.219
 UNBOUND:                -1.219
 SMILES O=C(Nc1cncc2ccccc12)[C@@H]1CN(S(=O)(=O)CC2CS(=O)(=O)C2)Cc2ccc(Cl)cc21
 SMILES IDX 14 1 15 2 16 3 27 4 28 5 29 6 30 7 31 8 32 9 33 10 34 11
 SMILES IDX 2 12 1 13 3 14 4 16 5 17 13 18 6 19 12 20 8 21 7 22 11 23
 SMILES IDX 9 24 10 25 17 26 18 27 19 28 20 29 21 30 22 31 26 32 23 33
 SMILES IDX 24 34 25 35
 H PARENT 3 15

>  <TORSDO>
F 5

$$$$
MAT-POS-bf364d7a-4
 OpenBabel07072620443D

 35 39  0  0  1  0  0  0  0  0999 V2000
  -22.7620   -3.8230  -28.0360 C   0  0  1  0  0  3  0  0  0  0  0  0
  -21.8890   -4.7460  -27.1740 C   0  0  0  0  0  2  0  0  0  0  0  0
  -20.4770   -4.6670  -27.6120 N   0  0  0  0  0  0  0  0  0  0  0  0
  -20.2650   -5.1360  -28.9960 C   0  0  0  0  0  2  0  0  0  0  0  0
  -21.3030   -4.6120  -29.9700 C   0  0  0  0  0  0  0  0  0  0  0  0
  -21.0700   -4.7570  -31.3480 C   0  0  0  0  0  3  0  0  0  0  0  0
  -21.9780   -4.2550  -32.2800 C   0  0  0  0  0  3  0  0  0  0  0  0
  -23.1200   -3.5930  -31.8440 C   0  0  0  0  0  0  0  0  0  0  0  0
  -24.2320   -2.9600  -32.9920 Cl  0  0  0  0  0  0  0  0  0  0  0  0
  -23.3730   -3.4450  -30.4810 C   0  0  0  0  0  3  0  0  0  0  0  0
  -22.4860   -3.9830  -29.5280 C   0  0  0  0  0  0  0  0  0  0  0  0
  -24.2120   -4.0920  -27.6200 C   0  0  0  0  0  0  0  0  0  0  0  0
  -25.0850   -3.2660  -27.8680 O   0  0  0  0  0  0  0  0  0  0  0  0
  -24.3970   -5.2640  -26.9020 N   0  0  0  0  0  0  0  0  0  0  0  0
  -23.6110   -5.8980  -26.8720 H   0  0  0  0  0  0  0  0  0  0  0  0
  -25.5990   -5.7350  -26.3070 C   0  0  0  0  0  0  0  0  0  0  0  0
  -26.4800   -6.5930  -26.9690 C   0  0  0  0  0  3  0  0  0  0  0  0
  -25.9510   -5.3080  -24.9910 C   0  0  0  0  0  0  0  0  0  0  0  0
  -27.6500   -7.0390  -26.4560 N   0  0  0  0  0  0  0  0  0  0  0  0
  -25.1700   -4.4540  -24.1650 C   0  0  0  0  0  3  0  0  0  0  0  0
  -27.1730   -5.7690  -24.4450 C   0  0  0  0  0  0  0  0  0  0  0  0
  -27.9630   -6.6200  -25.2160 C   0  0  0  0  0  3  0  0  0  0  0  0
  -25.5860   -4.0780  -22.8830 C   0  0  0  0  0  3  0  0  0  0  0  0
  -27.5820   -5.3850  -23.1550 C   0  0  0  0  0  3  0  0  0  0  0  0
  -26.7930   -4.5420  -22.3780 C   0  0  0  0  0  3  0  0  0  0  0  0
  -19.2680   -5.0000  -26.4880 S   0  0  0  0  0  0  0  0  0  0  0  0
  -19.9030   -5.1900  -25.2050 O   0  0  0  0  0  0  0  0  0  0  0  0
  -18.2130   -4.0300  -26.6740 O   0  0  0  0  0  0  0  0  0  0  0  0
  -18.6470   -6.5880  -27.0240 C   0  0  0  0  0  2  0  0  0  0  0  0
  -18.0170   -7.4250  -25.9140 C   0  0  0  0  0  3  0  0  0  0  0  0
  -17.2580   -8.7530  -26.2230 C   0  0  0  0  0  2  0  0  0  0  0  0
  -16.8030   -6.9020  -25.0840 C   0  0  0  0  0  2  0  0  0  0  0  0
  -16.3970   -8.5850  -24.6760 S   0  0  0  0  0  0  0  0  0  0  0  0
  -14.9820   -8.8520  -24.8130 O   0  0  0  0  0  0  0  0  0  0  0  0
  -17.1960   -9.0730  -23.5700 O   0  0  0  0  0  0  0  0  0  0  0  0
  1 12  1  6  0  0  0
  1  2  1  0  0  0  0
  3  2  1  0  0  0  0
  3 26  1  0  0  0  0
  4  3  1  0  0  0  0
  5 11  1  0  0  0  0
  5  4  1  0  0  0  0
  6  5  2  0  0  0  0
  7  8  2  0  0  0  0
  7  6  1  0  0  0  0
  8 10  1  0  0  0  0
  9  8  1  0  0  0  0
 10 11  2  0  0  0  0
 11  1  1  0  0  0  0
 12 14  1  0  0  0  0
 13 12  2  0  0  0  0
 14 15  1  0  0  0  0
 14 16  1  0  0  0  0
 16 18  1  0  0  0  0
 17 19  1  0  0  0  0
 17 16  2  0  0  0  0
 18 21  2  0  0  0  0
 18 20  1  0  0  0  0
 19 22  2  0  0  0  0
 20 23  2  0  0  0  0
 21 24  1  0  0  0  0
 22 21  1  0  0  0  0
 23 25  1  0  0  0  0
 24 25  2  0  0  0  0
 26 27  2  0  0  0  0
 28 26  2  0  0  0  0
 29 26  1  0  0  0  0
 29 30  1  0  0  0  0
 30 32  1  0  0  0  0
 31 30  1  0  0  0  0
 31 33  1  0  0  0  0
 32 33  1  0  0  0  0
 33 35  2  0  0  0  0
 34 33  2  0  0  0  0
M  END
>  <MODEL>
1

>  <REMARK>
 VINA RESULT:    -8.508      0.000      0.000
 INTER + INTRA:         -11.878
 INTER:                 -10.996
 INTRA:                  -0.883
 UNBOUND:                -0.883
 SMILES O=C(Nc1cncc2ccccc12)[C@H]1CN(S(=O)(=O)CC2CS(=O)(=O)C2)Cc2ccc(Cl)cc21
 SMILES IDX 14 1 15 2 16 3 27 4 28 5 29 6 30 7 31 8 32 9 33 10 34 11
 SMILES IDX 2 12 1 13 3 14 4 16 5 17 13 18 6 19 12 20 8 21 7 22 11 23
 SMILES IDX 9 24 10 25 17 26 18 27 19 28 20 29 21 30 22 31 26 32 23 33
 SMILES IDX 24 34 25 35
 H PARENT 3 15

>  <TORSDO>
F 5

$$$$
MAT-POS-c74bc7b3-1
 OpenBabel07072620443D

 28 31  0  0  1  0  0  0  0  0999 V2000
  -22.6860   -6.7180  -27.3720 C   0  0  0  0  0  1  0  0  0  0  0  0
  -21.6140   -6.1450  -28.3230 C   0  0  1  0  0  0  0  0  0  0  0  0
  -22.2020   -4.9150  -29.0600 C   0  0  0  0  0  2  0  0  0  0  0  0
  -22.0900   -3.6610  -28.2140 C   0  0  0  0  0  2  0  0  0  0  0  0
  -20.6830   -3.3920  -27.9470 N   0  0  0  0  0  0  0  0  0  0  0  0
  -19.9860   -4.4400  -27.3260 C   0  0  0  0  0  0  0  0  0  0  0  0
  -18.7970   -4.1490  -26.6450 C   0  0  0  0  0  3  0  0  0  0  0  0
  -18.0310   -5.1620  -26.0600 C   0  0  0  0  0  0  0  0  0  0  0  0
  -16.5950   -4.7010  -25.2190 Cl  0  0  0  0  0  0  0  0  0  0  0  0
  -18.4380   -6.4910  -26.1760 C   0  0  0  0  0  0  0  0  0  0  0  0
  -17.5510   -7.7990  -25.4800 Cl  0  0  0  0  0  0  0  0  0  0  0  0
  -19.5980   -6.7970  -26.8930 C   0  0  0  0  0  3  0  0  0  0  0  0
  -20.3710   -5.7810  -27.4940 C   0  0  0  0  0  0  0  0  0  0  0  0
  -20.5430   -2.5020  -27.4700 H   0  0  0  0  0  0  0  0  0  0  0  0
  -21.2550   -7.1960  -29.4110 C   0  0  0  0  0  0  0  0  0  0  0  0
  -21.5420   -8.3820  -29.2730 O   0  0  0  0  0  0  0  0  0  0  0  0
  -20.6180   -6.6510  -30.5180 N   0  0  0  0  0  0  0  0  0  0  0  0
  -20.4240   -5.6600  -30.4630 H   0  0  0  0  0  0  0  0  0  0  0  0
  -20.1660   -7.3180  -31.6850 C   0  0  0  0  0  0  0  0  0  0  0  0
  -19.6310   -8.6080  -31.6560 C   0  0  0  0  0  3  0  0  0  0  0  0
  -20.2560   -6.6660  -32.9510 C   0  0  0  0  0  0  0  0  0  0  0  0
  -19.1940   -9.2860  -32.7440 N   0  0  0  0  0  0  0  0  0  0  0  0
  -20.7670   -5.3570  -33.1680 C   0  0  0  0  0  3  0  0  0  0  0  0
  -19.7990   -7.3630  -34.0950 C   0  0  0  0  0  0  0  0  0  0  0  0
  -19.2880   -8.6490  -33.9260 C   0  0  0  0  0  3  0  0  0  0  0  0
  -20.8210   -4.7830  -34.4430 C   0  0  0  0  0  3  0  0  0  0  0  0
  -19.8580   -6.7780  -35.3730 C   0  0  0  0  0  3  0  0  0  0  0  0
  -20.3670   -5.4930  -35.5450 C   0  0  0  0  0  3  0  0  0  0  0  0
  2 13  1  0  0  0  0
  2  1  1  1  0  0  0
  3  2  1  0  0  0  0
  3  4  1  0  0  0  0
  4  5  1  0  0  0  0
  5 14  1  0  0  0  0
  5  6  1  0  0  0  0
  6  7  1  0  0  0  0
  7  8  2  0  0  0  0
  8  9  1  0  0  0  0
 10  8  1  0  0  0  0
 10 11  1  0  0  0  0
 12 10  2  0  0  0  0
 13  6  2  0  0  0  0
 13 12  1  0  0  0  0
 15 16  2  0  0  0  0
 15  2  1  0  0  0  0
 17 18  1  0  0  0  0
 17 15  1  0  0  0  0
 19 20  1  0  0  0  0
 19 17  1  0  0  0  0
 21 19  2  0  0  0  0
 22 20  2  0  0  0  0
 23 21  1  0  0  0  0
 24 25  2  0  0  0  0
 24 21  1  0  0  0  0
 25 22  1  0  0  0  0
 26 23  2  0  0  0  0
 27 24  1  0  0  0  0
 28 27  2  0  0  0  0
 28 26  1  0  0  0  0
M  END
>  <MODEL>
1

>  <REMARK>
 VINA RESULT:    -7.818      0.000      0.000
 INTER + INTRA:          -9.229
 INTER:                  -8.732
 INTRA:                  -0.497
 UNBOUND:                -0.497
 SMILES C[C@@]1(C(=O)Nc2cncc3ccccc23)CCNc2cc(Cl)c(Cl)cc21
 SMILES IDX 1 1 2 2 16 3 17 4 18 5 19 6 20 7 21 8 22 9 23 10 24 11 25 12
 SMILES IDX 26 13 3 15 4 16 5 17 6 19 7 20 15 21 8 22 14 23 10 24 9 25
 SMILES IDX 13 26 11 27 12 28
 H PARENT 18 14 5 18

>  <TORSDO>
F 2

$$$$
MAT-POS-d8472c4f-1
 OpenBabel07072620443D

 25 28  0  0  1  0  0  0  0  0999 V2000
  -20.0490   -4.7180  -29.2500 O   0  0  0  0  0  0  0  0  0  0  0  0
  -21.0620   -4.7360  -28.5630 C   0  0  0  0  0  0  0  0  0  0  0  0
  -21.3220   -5.5310  -27.4370 N   0  0  0  0  0  0  0  0  0  0  0  0
  -22.6300   -5.2520  -26.8900 C   0  0  0  0  0  2  0  0  0  0  0  0
  -23.3880   -4.5940  -28.0260 C   0  0  0  0  0  2  0  0  0  0  0  0
  -22.2990   -3.8420  -28.7950 C   0  0  1  0  0  0  0  0  0  0  0  0
  -20.4100   -6.4120  -26.7960 C   0  0  0  0  0  0  0  0  0  0  0  0
  -20.7680   -7.7590  -26.6740 C   0  0  0  0  0  3  0  0  0  0  0  0
  -19.1430   -6.0220  -26.2720 C   0  0  0  0  0  0  0  0  0  0  0  0
  -19.9940   -8.7300  -26.1430 N   0  0  0  0  0  0  0  0  0  0  0  0
  -18.6590   -4.6930  -26.1780 C   0  0  0  0  0  3  0  0  0  0  0  0
  -18.3070   -7.0310  -25.7290 C   0  0  0  0  0  0  0  0  0  0  0  0
  -18.7810   -8.3420  -25.7020 C   0  0  0  0  0  3  0  0  0  0  0  0
  -17.3990   -4.3900  -25.6500 C   0  0  0  0  0  3  0  0  0  0  0  0
  -17.0390   -6.7190  -25.2060 C   0  0  0  0  0  3  0  0  0  0  0  0
  -16.5850   -5.4050  -25.1730 C   0  0  0  0  0  3  0  0  0  0  0  0
  -22.0420   -2.5910  -28.1470 O   0  0  0  0  0  0  0  0  0  0  0  0
  -21.8940   -2.8080  -27.2060 H   0  0  0  0  0  0  0  0  0  0  0  0
  -22.7180   -3.5940  -30.2350 C   0  0  0  0  0  0  0  0  0  0  0  0
  -22.3120   -4.4200  -31.2960 C   0  0  0  0  0  3  0  0  0  0  0  0
  -23.5940   -2.5290  -30.5290 C   0  0  0  0  0  3  0  0  0  0  0  0
  -22.7440   -4.1790  -32.6040 C   0  0  0  0  0  3  0  0  0  0  0  0
  -24.0220   -2.2930  -31.8370 C   0  0  0  0  0  0  0  0  0  0  0  0
  -23.5980   -3.1130  -32.8760 C   0  0  0  0  0  3  0  0  0  0  0  0
  -25.0870   -0.9810  -32.1620 Cl  0  0  0  0  0  0  0  0  0  0  0  0
  1  2  2  0  0  0  0
  2  3  1  0  0  0  0
  3  4  1  0  0  0  0
  3  7  1  0  0  0  0
  5  4  1  0  0  0  0
  6  2  1  0  0  0  0
  6 17  1  1  0  0  0
  6  5  1  0  0  0  0
  7  8  2  0  0  0  0
  7  9  1  0  0  0  0
  8 10  1  0  0  0  0
  9 11  2  0  0  0  0
  9 12  1  0  0  0  0
 10 13  2  0  0  0  0
 11 14  1  0  0  0  0
 12 13  1  0  0  0  0
 12 15  2  0  0  0  0
 14 16  2  0  0  0  0
 15 16  1  0  0  0  0
 17 18  1  0  0  0  0
 19  6  1  0  0  0  0
 20 19  2  0  0  0  0
 21 19  1  0  0  0  0
 22 20  1  0  0  0  0
 23 21  2  0  0  0  0
 24 22  2  0  0  0  0
 24 23  1  0  0  0  0
 25 23  1  0  0  0  0
M  END
>  <MODEL>
1

>  <REMARK>
 VINA RESULT:    -7.871      0.000      0.000
 INTER + INTRA:          -9.183
 INTER:                  -9.021
 INTRA:                  -0.161
 UNBOUND:                -0.161
 SMILES O=C1N(c2cncc3ccccc23)CCC1(O)c1cccc(Cl)c1
 SMILES IDX 1 1 2 2 3 3 14 4 15 5 16 6 4 7 5 8 13 9 6 10 12 11 8 12 7 13
 SMILES IDX 11 14 9 15 10 16 17 17 18 19 19 20 24 21 20 22 22 23 21 24
 SMILES IDX 23 25
 H PARENT 17 18

>  <TORSDO>
F 3

$$$$
MAT-POS-dd1fff26-1
 OpenBabel07072620443D

 33 37  0  0  1  0  0  0  0  0999 V2000
  -19.4380   -5.8810  -27.4990 S   0  0  0  0  0  0  0  0  0  0  0  0
  -18.6940   -4.6400  -27.4220 O   0  0  0  0  0  0  0  0  0  0  0  0
  -19.1340   -6.8330  -28.5510 O   0  0  0  0  0  0  0  0  0  0  0  0
  -19.3190   -6.7530  -25.9250 C   0  0  0  0  0  2  0  0  0  0  0  0
  -17.8960   -7.2060  -25.6470 C   0  0  0  0  0  0  0  0  0  0  0  0
  -17.3260   -8.4200  -26.3530 C   0  0  0  0  0  2  0  0  0  0  0  0
  -17.7520   -8.5350  -24.9230 C   0  0  0  0  0  2  0  0  0  0  0  0
  -16.9400   -6.1220  -25.2000 C   0  0  0  0  0  1  0  0  0  0  0  0
  -21.0770   -5.5030  -27.6500 N   0  0  0  0  0  0  0  0  0  0  0  0
  -21.7650   -5.9500  -28.8820 C   0  0  0  0  0  2  0  0  0  0  0  0
  -21.4770   -4.1770  -27.0830 C   0  0  0  0  0  2  0  0  0  0  0  0
  -22.3320   -4.8280  -29.7200 C   0  0  0  0  0  0  0  0  0  0  0  0
  -22.8500   -3.6700  -27.5590 C   0  0  1  0  0  3  0  0  0  0  0  0
  -22.3680   -4.9090  -31.1180 C   0  0  0  0  0  3  0  0  0  0  0  0
  -22.8700   -3.7010  -29.0760 C   0  0  0  0  0  0  0  0  0  0  0  0
  -22.9130   -3.8650  -31.8680 C   0  0  0  0  0  3  0  0  0  0  0  0
  -23.3980   -2.6450  -29.8330 C   0  0  0  0  0  3  0  0  0  0  0  0
  -23.4200   -2.7370  -31.2240 C   0  0  0  0  0  0  0  0  0  0  0  0
  -24.0950   -1.4510  -32.1450 Cl  0  0  0  0  0  0  0  0  0  0  0  0
  -24.0030   -4.4540  -26.9040 C   0  0  0  0  0  0  0  0  0  0  0  0
  -23.8280   -5.1410  -25.9050 O   0  0  0  0  0  0  0  0  0  0  0  0
  -25.2350   -4.2600  -27.5170 N   0  0  0  0  0  0  0  0  0  0  0  0
  -25.2400   -3.6700  -28.3350 H   0  0  0  0  0  0  0  0  0  0  0  0
  -26.4760   -4.8670  -27.1850 C   0  0  0  0  0  0  0  0  0  0  0  0
  -27.4150   -4.2620  -26.3450 C   0  0  0  0  0  3  0  0  0  0  0  0
  -26.7910   -6.1590  -27.7090 C   0  0  0  0  0  0  0  0  0  0  0  0
  -28.5940   -4.8160  -25.9830 N   0  0  0  0  0  0  0  0  0  0  0  0
  -25.9650   -6.9220  -28.5800 C   0  0  0  0  0  3  0  0  0  0  0  0
  -28.0230   -6.7470  -27.3340 C   0  0  0  0  0  0  0  0  0  0  0  0
  -28.8640   -6.0350  -26.4830 C   0  0  0  0  0  3  0  0  0  0  0  0
  -26.3450   -8.1860  -29.0470 C   0  0  0  0  0  3  0  0  0  0  0  0
  -28.3930   -8.0210  -27.8050 C   0  0  0  0  0  3  0  0  0  0  0  0
  -27.5580   -8.7340  -28.6600 C   0  0  0  0  0  3  0  0  0  0  0  0
  1  2  2  0  0  0  0
  1  4  1  0  0  0  0
  3  1  2  0  0  0  0
  4  5  1  0  0  0  0
  5  8  1  0  0  0  0
  5  7  1  0  0  0  0
  6  5  1  0  0  0  0
  6  7  1  0  0  0  0
  9  1  1  0  0  0  0
  9 11  1  0  0  0  0
 10  9  1  0  0  0  0
 12 15  1  0  0  0  0
 12 10  1  0  0  0  0
 13 11  1  0  0  0  0
 13 20  1  1  0  0  0
 14 12  2  0  0  0  0
 15 13  1  0  0  0  0
 16 18  2  0  0  0  0
 16 14  1  0  0  0  0
 17 15  2  0  0  0  0
 18 17  1  0  0  0  0
 19 18  1  0  0  0  0
 20 21  2  0  0  0  0
 22 24  1  0  0  0  0
 22 20  1  0  0  0  0
 23 22  1  0  0  0  0
 24 25  1  0  0  0  0
 25 27  2  0  0  0  0
 26 29  1  0  0  0  0
 26 24  2  0  0  0  0
 28 26  1  0  0  0  0
 29 30  2  0  0  0  0
 30 27  1  0  0  0  0
 31 33  1  0  0  0  0
 31 28  2  0  0  0  0
 32 29  1  0  0  0  0
 33 32  2  0  0  0  0
M  END
>  <MODEL>
1

>  <REMARK>
 VINA RESULT:    -8.085      0.000      0.000
 INTER + INTRA:         -11.466
 INTER:                 -10.448
 INTRA:                  -1.018
 UNBOUND:                -1.018
 SMILES CC1(CS(=O)(=O)N2Cc3ccc(Cl)cc3[C@@H](C(=O)Nc3cncc4ccccc34)C2)CC1
 SMILES IDX 4 1 5 2 6 3 3 4 2 5 31 6 32 7 1 8 7 9 8 10 30 11 9 12 16 13
 SMILES IDX 10 14 15 15 11 16 14 17 12 18 13 19 17 20 18 21 19 22 20 24
 SMILES IDX 21 25 29 26 22 27 28 28 24 29 23 30 27 31 25 32 26 33
 H PARENT 19 23

>  <TORSDO>
F 5

$$$$
MAT-POS-dd1fff26-2
 OpenBabel07072620443D

 33 37  0  0  1  0  0  0  0  0999 V2000
  -25.1420   -4.3800  -27.0640 S   0  0  0  0  0  0  0  0  0  0  0  0
  -25.4800   -5.5820  -27.7980 O   0  0  0  0  0  0  0  0  0  0  0  0
  -26.1140   -3.3060  -26.9740 O   0  0  0  0  0  0  0  0  0  0  0  0
  -24.6340   -4.8220  -25.3910 C   0  0  0  0  0  2  0  0  0  0  0  0
  -25.5920   -4.2690  -24.3490 C   0  0  0  0  0  0  0  0  0  0  0  0
  -25.9910   -5.2480  -23.2550 C   0  0  0  0  0  2  0  0  0  0  0  0
  -27.0100   -4.8070  -24.2620 C   0  0  0  0  0  2  0  0  0  0  0  0
  -25.3560   -2.8480  -23.8930 C   0  0  0  0  0  1  0  0  0  0  0  0
  -23.7400   -3.7120  -27.7570 N   0  0  0  0  0  0  0  0  0  0  0  0
  -23.8680   -3.2780  -29.1720 C   0  0  0  0  0  2  0  0  0  0  0  0
  -22.4860   -4.4430  -27.4050 C   0  0  0  0  0  2  0  0  0  0  0  0
  -22.8680   -3.8730  -30.1380 C   0  0  0  0  0  0  0  0  0  0  0  0
  -21.2710   -3.9800  -28.2220 C   0  0  2  0  0  3  0  0  0  0  0  0
  -23.2060   -4.0430  -31.4890 C   0  0  0  0  0  3  0  0  0  0  0  0
  -21.5600   -4.1590  -29.7030 C   0  0  0  0  0  0  0  0  0  0  0  0
  -22.2510   -4.4840  -32.4060 C   0  0  0  0  0  3  0  0  0  0  0  0
  -20.5930   -4.5490  -30.6430 C   0  0  0  0  0  3  0  0  0  0  0  0
  -20.9480   -4.7240  -31.9810 C   0  0  0  0  0  0  0  0  0  0  0  0
  -19.7630   -5.2400  -33.1150 Cl  0  0  0  0  0  0  0  0  0  0  0  0
  -20.0320   -4.7130  -27.7030 C   0  0  0  0  0  0  0  0  0  0  0  0
  -18.9730   -4.1040  -27.5690 O   0  0  0  0  0  0  0  0  0  0  0  0
  -20.2290   -6.0540  -27.4150 N   0  0  0  0  0  0  0  0  0  0  0  0
  -21.1350   -6.4360  -27.6510 H   0  0  0  0  0  0  0  0  0  0  0  0
  -19.2740   -6.9840  -26.9220 C   0  0  0  0  0  0  0  0  0  0  0  0
  -18.9180   -7.0560  -25.5730 C   0  0  0  0  0  3  0  0  0  0  0  0
  -18.6450   -7.8970  -27.8250 C   0  0  0  0  0  0  0  0  0  0  0  0
  -18.0140   -7.9210  -25.0580 N   0  0  0  0  0  0  0  0  0  0  0  0
  -18.8800   -7.9700  -29.2230 C   0  0  0  0  0  3  0  0  0  0  0  0
  -17.6980   -8.8100  -27.2980 C   0  0  0  0  0  0  0  0  0  0  0  0
  -17.4290   -8.7670  -25.9300 C   0  0  0  0  0  3  0  0  0  0  0  0
  -18.2260   -8.8990  -30.0400 C   0  0  0  0  0  3  0  0  0  0  0  0
  -17.0420   -9.7360  -28.1270 C   0  0  0  0  0  3  0  0  0  0  0  0
  -17.3080   -9.7830  -29.4930 C   0  0  0  0  0  3  0  0  0  0  0  0
  1  3  2  0  0  0  0
  1  4  1  0  0  0  0
  2  1  2  0  0  0  0
  4  5  1  0  0  0  0
  5  7  1  0  0  0  0
  5  8  1  0  0  0  0
  5  6  1  0  0  0  0
  7  6  1  0  0  0  0
  9 11  1  0  0  0  0
  9  1  1  0  0  0  0
 10  9  1  0  0  0  0
 12 15  1  0  0  0  0
 12 10  1  0  0  0  0
 13 20  1  1  0  0  0
 13 11  1  0  0  0  0
 14 12  2  0  0  0  0
 15 13  1  0  0  0  0
 16 18  2  0  0  0  0
 16 14  1  0  0  0  0
 17 15  2  0  0  0  0
 18 17  1  0  0  0  0
 19 18  1  0  0  0  0
 20 21  2  0  0  0  0
 20 22  1  0  0  0  0
 22 24  1  0  0  0  0
 23 22  1  0  0  0  0
 24 25  1  0  0  0  0
 25 27  2  0  0  0  0
 26 29  1  0  0  0  0
 26 24  2  0  0  0  0
 28 26  1  0  0  0  0
 29 30  2  0  0  0  0
 30 27  1  0  0  0  0
 31 33  1  0  0  0  0
 31 28  2  0  0  0  0
 32 29  1  0  0  0  0
 33 32  2  0  0  0  0
M  END
>  <MODEL>
1

>  <REMARK>
 VINA RESULT:    -8.122      0.000      0.000
 INTER + INTRA:         -11.575
 INTER:                 -10.497
 INTRA:                  -1.079
 UNBOUND:                -1.079
 SMILES CC1(CS(=O)(=O)N2Cc3ccc(Cl)cc3[C@H](C(=O)Nc3cncc4ccccc34)C2)CC1
 SMILES IDX 4 1 5 2 6 3 3 4 2 5 31 6 32 7 1 8 7 9 8 10 30 11 9 12 16 13
 SMILES IDX 10 14 15 15 11 16 14 17 12 18 13 19 17 20 18 21 19 22 20 24
 SMILES IDX 21 25 29 26 22 27 28 28 24 29 23 30 27 31 25 32 26 33
 H PARENT 19 23

>  <TORSDO>
F 5

$$$$
MAT-POS-e20a5dfb-2
 OpenBabel07072620443D

 27 31  0  0  1  0  0  0  0  0999 V2000
  -19.5000   -4.4200  -29.1630 O   0  0  0  0  0  0  0  0  0  0  0  0
  -20.5370   -4.8860  -28.6870 C   0  0  0  0  0  0  0  0  0  0  0  0
  -20.6160   -5.3520  -27.3690 N   0  0  0  0  0  0  0  0  0  0  0  0
  -21.6530   -6.2890  -26.9320 C   0  0  0  0  0  2  0  0  0  0  0  0
  -23.0090   -6.0010  -27.5400 C   0  0  0  0  0  2  0  0  0  0  0  0
  -22.8650   -5.9120  -29.0490 C   0  0  0  0  0  2  0  0  0  0  0  0
  -21.8720   -4.8070  -29.4770 C   0  0  1  0  0  0  0  0  0  0  0  0
  -22.4170   -3.3880  -29.1920 C   0  0  0  0  0  2  0  0  0  0  0  0
  -23.5060   -3.0160  -30.1800 C   0  0  0  0  0  2  0  0  0  0  0  0
  -23.0250   -2.9860  -31.5210 O   0  0  0  0  0  0  0  0  0  0  0  0
  -22.2420   -4.0450  -31.8870 C   0  0  0  0  0  0  0  0  0  0  0  0
  -22.0250   -4.1680  -33.2630 C   0  0  0  0  0  3  0  0  0  0  0  0
  -21.2440   -5.2080  -33.7660 C   0  0  0  0  0  3  0  0  0  0  0  0
  -20.6740   -6.1200  -32.8860 C   0  0  0  0  0  0  0  0  0  0  0  0
  -19.7140   -7.4130  -33.4940 Cl  0  0  0  0  0  0  0  0  0  0  0  0
  -20.8750   -5.9960  -31.5100 C   0  0  0  0  0  3  0  0  0  0  0  0
  -21.6550   -4.9460  -30.9870 C   0  0  0  0  0  0  0  0  0  0  0  0
  -19.4300   -5.3850  -26.5690 C   0  0  0  0  0  0  0  0  0  0  0  0
  -19.0420   -4.1970  -25.9470 C   0  0  0  0  0  3  0  0  0  0  0  0
  -18.6610   -6.5550  -26.3320 C   0  0  0  0  0  0  0  0  0  0  0  0
  -17.9690   -4.0680  -25.1380 N   0  0  0  0  0  0  0  0  0  0  0  0
  -18.9590   -7.8410  -26.8450 C   0  0  0  0  0  3  0  0  0  0  0  0
  -17.5260   -6.4380  -25.4970 C   0  0  0  0  0  0  0  0  0  0  0  0
  -17.2360   -5.1860  -24.9460 C   0  0  0  0  0  3  0  0  0  0  0  0
  -18.1550   -8.9500  -26.5660 C   0  0  0  0  0  3  0  0  0  0  0  0
  -16.7220   -7.5610  -25.2230 C   0  0  0  0  0  3  0  0  0  0  0  0
  -17.0350   -8.8080  -25.7570 C   0  0  0  0  0  3  0  0  0  0  0  0
  1  2  2  0  0  0  0
  2  3  1  0  0  0  0
  3  4  1  0  0  0  0
  3 18  1  0  0  0  0
  5  4  1  0  0  0  0
  6  5  1  0  0  0  0
  7  8  1  1  0  0  0
  7  6  1  0  0  0  0
  7  2  1  0  0  0  0
  9  8  1  0  0  0  0
 10  9  1  0  0  0  0
 11 10  1  0  0  0  0
 11 17  1  0  0  0  0
 12 11  2  0  0  0  0
 13 12  1  0  0  0  0
 13 14  2  0  0  0  0
 14 16  1  0  0  0  0
 15 14  1  0  0  0  0
 16 17  2  0  0  0  0
 17  7  1  0  0  0  0
 18 20  2  0  0  0  0
 18 19  1  0  0  0  0
 19 21  2  0  0  0  0
 20 23  1  0  0  0  0
 21 24  1  0  0  0  0
 22 25  2  0  0  0  0
 22 20  1  0  0  0  0
 23 26  1  0  0  0  0
 23 24  2  0  0  0  0
 25 27  1  0  0  0  0
 27 26  2  0  0  0  0
M  END
>  <MODEL>
1

>  <REMARK>
 VINA RESULT:    -8.292      0.000      0.000
 INTER + INTRA:          -8.890
 INTER:                  -8.776
 INTRA:                  -0.113
 UNBOUND:                -0.113
 SMILES O=C1N(c2cncc3ccccc23)CCC[C@@]12CCOc1ccc(Cl)cc12
 SMILES IDX 1 1 2 2 3 3 14 4 15 5 16 6 17 7 18 8 19 9 20 10 21 11 22 12
 SMILES IDX 23 13 24 14 25 15 26 16 27 17 4 18 5 19 13 20 6 21 12 22
 SMILES IDX 8 23 7 24 11 25 9 26 10 27
 H PARENT

>  <TORSDO>
F 1

$$$$
MAT-POS-e48723dc-2
 OpenBabel07072620443D

 35 40  0  0  1  0  0  0  0  0999 V2000
  -27.5690   -4.6660  -26.4690 C   0  0  0  0  0  0  0  0  0  0  0  0
  -27.3680   -3.1780  -26.7340 C   0  0  0  0  0  2  0  0  0  0  0  0
  -28.6810   -3.8090  -27.0650 C   0  0  0  0  0  2  0  0  0  0  0  0
  -27.7110   -5.1040  -25.0250 C   0  0  0  0  0  0  0  0  0  0  0  0
  -26.6590   -4.7320  -24.2330 N   0  0  0  0  0  0  0  0  0  0  0  0
  -28.7350   -5.6620  -24.6390 O   0  0  0  0  0  0  0  0  0  0  0  0
  -26.6600   -4.9280  -22.8090 C   0  0  0  0  0  1  0  0  0  0  0  0
  -26.0300   -4.0270  -24.6290 H   0  0  0  0  0  0  0  0  0  0  0  0
  -26.9230   -5.6520  -27.3200 N   0  0  0  0  0  0  0  0  0  0  0  0
  -25.4930   -5.5240  -27.5700 C   0  0  0  0  0  2  0  0  0  0  0  0
  -27.6450   -6.7440  -27.7810 C   0  0  0  0  0  0  0  0  0  0  0  0
  -24.7680   -6.8640  -27.4240 C   0  0  1  0  0  0  0  0  0  0  0  0
  -26.8640   -7.8080  -28.4710 C   0  0  0  0  0  0  0  0  0  0  0  0
  -28.8530   -6.8830  -27.6100 O   0  0  0  0  0  0  0  0  0  0  0  0
  -24.7200   -7.3370  -25.9670 C   0  0  0  0  0  2  0  0  0  0  0  0
  -25.4640   -7.8860  -28.3200 C   0  0  0  0  0  0  0  0  0  0  0  0
  -23.2840   -6.6540  -27.7220 C   0  0  0  0  0  0  0  0  0  0  0  0
  -27.5560   -8.7590  -29.2340 C   0  0  0  0  0  3  0  0  0  0  0  0
  -23.4180   -8.1080  -25.8790 C   0  0  0  0  0  2  0  0  0  0  0  0
  -24.7830   -8.9340  -28.9630 C   0  0  0  0  0  3  0  0  0  0  0  0
  -22.5530   -7.4860  -26.8630 N   0  0  0  0  0  0  0  0  0  0  0  0
  -22.8630   -5.8700  -28.5580 O   0  0  0  0  0  0  0  0  0  0  0  0
  -26.8620   -9.7880  -29.8660 C   0  0  0  0  0  3  0  0  0  0  0  0
  -25.4800   -9.8690  -29.7300 C   0  0  0  0  0  0  0  0  0  0  0  0
  -24.6190  -11.1430  -30.5020 Cl  0  0  0  0  0  0  0  0  0  0  0  0
  -21.1460   -7.7380  -26.9050 C   0  0  0  0  0  0  0  0  0  0  0  0
  -20.6960   -8.9060  -27.5350 C   0  0  0  0  0  3  0  0  0  0  0  0
  -20.1390   -6.8700  -26.3660 C   0  0  0  0  0  0  0  0  0  0  0  0
  -19.4070   -9.2960  -27.6590 N   0  0  0  0  0  0  0  0  0  0  0  0
  -20.3440   -5.5910  -25.7890 C   0  0  0  0  0  3  0  0  0  0  0  0
  -18.7840   -7.2730  -26.4710 C   0  0  0  0  0  0  0  0  0  0  0  0
  -18.4920   -8.4720  -27.1140 C   0  0  0  0  0  3  0  0  0  0  0  0
  -19.2980   -4.8080  -25.2820 C   0  0  0  0  0  3  0  0  0  0  0  0
  -17.7360   -6.4740  -25.9730 C   0  0  0  0  0  3  0  0  0  0  0  0
  -17.9940   -5.2510  -25.3680 C   0  0  0  0  0  3  0  0  0  0  0  0
  1  4  1  0  0  0  0
  2  1  1  0  0  0  0
  3  2  1  0  0  0  0
  3  1  1  0  0  0  0
  4  6  2  0  0  0  0
  4  5  1  0  0  0  0
  5  7  1  0  0  0  0
  8  5  1  0  0  0  0
  9  1  1  0  0  0  0
 10  9  1  0  0  0  0
 11 14  2  0  0  0  0
 11  9  1  0  0  0  0
 12 10  1  6  0  0  0
 12 15  1  0  0  0  0
 13 16  1  0  0  0  0
 13 11  1  0  0  0  0
 15 19  1  0  0  0  0
 16 12  1  0  0  0  0
 17 12  1  0  0  0  0
 17 21  1  0  0  0  0
 18 13  2  0  0  0  0
 20 16  2  0  0  0  0
 21 19  1  0  0  0  0
 22 17  2  0  0  0  0
 23 24  2  0  0  0  0
 23 18  1  0  0  0  0
 24 20  1  0  0  0  0
 25 24  1  0  0  0  0
 26 21  1  0  0  0  0
 26 28  1  0  0  0  0
 27 26  2  0  0  0  0
 28 30  1  0  0  0  0
 29 27  1  0  0  0  0
 29 32  2  0  0  0  0
 30 33  2  0  0  0  0
 31 28  2  0  0  0  0
 31 34  1  0  0  0  0
 32 31  1  0  0  0  0
 34 35  2  0  0  0  0
 35 33  1  0  0  0  0
M  END
>  <MODEL>
1

>  <REMARK>
 VINA RESULT:    -7.445      0.000      0.000
 INTER + INTRA:          -9.290
 INTER:                  -8.750
 INTRA:                  -0.540
 UNBOUND:                -0.540
 SMILES CNC(=O)C1(N2C[C@@]3(CCN(c4cncc5ccccc45)C3=O)c3cc(Cl)ccc3C2=O)CC1
 SMILES IDX 5 1 33 2 34 3 3 4 2 5 4 6 1 7 6 9 7 10 31 11 8 12 30 13
 SMILES IDX 32 14 9 15 24 16 22 17 29 18 10 19 25 20 11 21 23 22 28 23
 SMILES IDX 26 24 27 25 12 26 13 27 21 28 14 29 20 30 16 31 15 32 19 33
 SMILES IDX 17 34 18 35
 H PARENT 2 8

>  <TORSDO>
F 3

$$$$
MAT-POS-ec6d90b7-7
 OpenBabel07072620443D

 27 30  0  0  1  0  0  0  0  0999 V2000
  -23.6290   -6.2110  -27.5590 O   0  0  0  0  0  0  0  0  0  0  0  0
  -23.5290   -5.0020  -27.3730 C   0  0  0  0  0  0  0  0  0  0  0  0
  -24.4980   -4.1830  -26.8150 N   0  0  0  0  0  0  0  0  0  0  0  0
  -24.2390   -3.2130  -26.7010 H   0  0  0  0  0  0  0  0  0  0  0  0
  -22.2550   -4.2640  -27.7960 C   0  0  1  0  0  3  0  0  0  0  0  0
  -21.0640   -4.8160  -27.0040 C   0  0  0  0  0  2  0  0  0  0  0  0
  -22.0000   -4.3090  -29.2910 C   0  0  0  0  0  0  0  0  0  0  0  0
  -19.7720   -4.3800  -27.6670 C   0  0  0  0  0  2  0  0  0  0  0  0
  -23.0220   -3.9870  -30.2040 C   0  0  0  0  0  3  0  0  0  0  0  0
  -20.7340   -4.6450  -29.7870 C   0  0  0  0  0  0  0  0  0  0  0  0
  -19.6680   -4.9360  -28.9800 O   0  0  0  0  0  0  0  0  0  0  0  0
  -22.7870   -4.0540  -31.5780 C   0  0  0  0  0  0  0  0  0  0  0  0
  -20.5050   -4.7300  -31.1590 C   0  0  0  0  0  3  0  0  0  0  0  0
  -21.5310   -4.4330  -32.0480 C   0  0  0  0  0  0  0  0  0  0  0  0
  -24.0580   -3.6760  -32.6750 Cl  0  0  0  0  0  0  0  0  0  0  0  0
  -21.2870   -4.5120  -33.3640 F   0  0  0  0  0  0  0  0  0  0  0  0
  -25.7840   -4.5580  -26.3430 C   0  0  0  0  0  0  0  0  0  0  0  0
  -26.8620   -4.7960  -27.1970 C   0  0  0  0  0  3  0  0  0  0  0  0
  -26.0080   -4.7010  -24.9400 C   0  0  0  0  0  0  0  0  0  0  0  0
  -28.1040   -5.1510  -26.7920 N   0  0  0  0  0  0  0  0  0  0  0  0
  -25.0320   -4.5020  -23.9310 C   0  0  0  0  0  3  0  0  0  0  0  0
  -27.3050   -5.0740  -24.5030 C   0  0  0  0  0  0  0  0  0  0  0  0
  -28.2920   -5.2810  -25.4640 C   0  0  0  0  0  3  0  0  0  0  0  0
  -25.3390   -4.6640  -22.5810 C   0  0  0  0  0  0  0  0  0  0  0  0
  -27.5940   -5.2320  -23.1340 C   0  0  0  0  0  3  0  0  0  0  0  0
  -26.6090   -5.0260  -22.1730 C   0  0  0  0  0  3  0  0  0  0  0  0
  -24.3830   -4.4620  -21.6650 F   0  0  0  0  0  0  0  0  0  0  0  0
  1  2  2  0  0  0  0
  2  3  1  0  0  0  0
  3  4  1  0  0  0  0
  3 17  1  0  0  0  0
  5  2  1  6  0  0  0
  5  6  1  0  0  0  0
  7  5  1  0  0  0  0
  8  6  1  0  0  0  0
  9  7  2  0  0  0  0
 10  7  1  0  0  0  0
 10 11  1  0  0  0  0
 11  8  1  0  0  0  0
 12  9  1  0  0  0  0
 13 10  2  0  0  0  0
 14 12  2  0  0  0  0
 14 13  1  0  0  0  0
 15 12  1  0  0  0  0
 16 14  1  0  0  0  0
 17 19  1  0  0  0  0
 18 20  1  0  0  0  0
 18 17  2  0  0  0  0
 19 22  2  0  0  0  0
 19 21  1  0  0  0  0
 20 23  2  0  0  0  0
 21 24  2  0  0  0  0
 22 25  1  0  0  0  0
 23 22  1  0  0  0  0
 24 26  1  0  0  0  0
 24 27  1  0  0  0  0
 25 26  2  0  0  0  0
M  END
>  <MODEL>
1

>  <REMARK>
 VINA RESULT:    -7.700      0.000      0.000
 INTER + INTRA:          -9.231
 INTER:                  -8.601
 INTRA:                  -0.630
 UNBOUND:                -0.630
 SMILES O=C(Nc1cncc2ccc(F)cc12)[C@H]1CCOc2cc(F)c(Cl)cc21
 SMILES IDX 1 1 2 2 3 3 15 5 16 6 26 7 17 8 25 9 19 10 18 11 23 12 20 13
 SMILES IDX 21 14 24 15 22 16 4 17 5 18 14 19 6 20 13 21 8 22 7 23 11 24
 SMILES IDX 9 25 10 26 12 27
 H PARENT 3 4

>  <TORSDO>
F 2

$$$$
MAT-POS-f2460aef-1
 OpenBabel07072620443D

 38 41  0  0  1  0  0  0  0  0999 V2000
  -20.9400   -5.7100  -30.9080 C   0  0  0  0  0  0  0  0  0  0  0  0
  -20.1080   -5.0110  -31.4780 O   0  0  0  0  0  0  0  0  0  0  0  0
  -20.7970   -7.0860  -30.8170 N   0  0  0  0  0  0  0  0  0  0  0  0
  -21.4930   -7.6330  -30.3210 H   0  0  0  0  0  0  0  0  0  0  0  0
  -22.2380   -5.1560  -30.2490 C   0  0  1  0  0  3  0  0  0  0  0  0
  -22.1420   -4.9410  -28.7780 N   0  0  0  0  0  0  0  0  0  0  0  0
  -23.3470   -5.0700  -27.9940 C   0  0  0  0  0  0  0  0  0  0  0  0
  -25.7400   -5.3450  -26.4410 C   0  0  0  0  0  0  0  0  0  0  0  0
  -24.7900   -4.3470  -26.1640 C   0  0  0  0  0  3  0  0  0  0  0  0
  -25.4560   -6.2080  -27.5040 C   0  0  0  0  0  3  0  0  0  0  0  0
  -23.6210   -4.2110  -26.9270 C   0  0  0  0  0  3  0  0  0  0  0  0
  -24.2830   -6.0740  -28.2640 C   0  0  0  0  0  3  0  0  0  0  0  0
  -27.0190   -5.4580  -25.5940 C   0  0  0  0  0  0  0  0  0  0  0  0
  -27.3800   -6.9460  -25.3830 C   0  0  0  0  0  1  0  0  0  0  0  0
  -28.1830   -4.7500  -26.3220 C   0  0  0  0  0  1  0  0  0  0  0  0
  -26.8970   -4.8180  -24.1920 C   0  0  0  0  0  1  0  0  0  0  0  0
  -20.9030   -4.7120  -28.1280 C   0  0  0  0  0  0  0  0  0  0  0  0
  -20.3310   -3.6190  -28.1730 O   0  0  0  0  0  0  0  0  0  0  0  0
  -20.2500   -5.7860  -27.3830 C   0  0  0  0  0  0  0  0  0  0  0  0
  -20.2730   -6.0410  -26.0190 C   0  0  0  0  0  3  0  0  0  0  0  0
  -19.4030   -6.6820  -27.9810 O   0  0  0  0  0  0  0  0  0  0  0  0
  -19.4190   -7.1460  -25.7870 C   0  0  0  0  0  3  0  0  0  0  0  0
  -18.9090   -7.4950  -27.0140 C   0  0  0  0  0  3  0  0  0  0  0  0
  -22.8900   -3.9930  -31.0020 C   0  0  0  0  0  0  0  0  0  0  0  0
  -23.0820   -2.7630  -30.3550 C   0  0  0  0  0  3  0  0  0  0  0  0
  -23.3170   -4.0820  -32.3240 C   0  0  0  0  0  3  0  0  0  0  0  0
  -23.6830   -1.7050  -31.0300 C   0  0  0  0  0  3  0  0  0  0  0  0
  -23.9250   -3.0770  -32.9960 N   0  0  0  0  0  0  0  0  0  0  0  0
  -24.0870   -1.9100  -32.3370 C   0  0  0  0  0  3  0  0  0  0  0  0
  -19.6680   -7.7790  -31.4110 C   0  0  0  0  0  2  0  0  0  0  0  0
  -20.1070   -8.8650  -32.3970 C   0  0  0  0  0  2  0  0  0  0  0  0
  -19.9960   -8.3890  -33.8230 C   0  0  0  0  0  0  0  0  0  0  0  0
  -20.4630   -9.1810  -34.8830 C   0  0  0  0  0  3  0  0  0  0  0  0
  -19.4630   -7.1230  -34.1030 C   0  0  0  0  0  3  0  0  0  0  0  0
  -20.3910   -8.7200  -36.2020 C   0  0  0  0  0  3  0  0  0  0  0  0
  -19.3950   -6.6750  -35.4190 C   0  0  0  0  0  0  0  0  0  0  0  0
  -19.8560   -7.4620  -36.4690 C   0  0  0  0  0  3  0  0  0  0  0  0
  -18.8850   -5.4630  -35.6760 F   0  0  0  0  0  0  0  0  0  0  0  0
  1  3  1  0  0  0  0
  2  1  2  0  0  0  0
  3  4  1  0  0  0  0
  5  1  1  6  0  0  0
  5  6  1  0  0  0  0
  6 17  1  0  0  0  0
  6  7  1  0  0  0  0
  7 11  1  0  0  0  0
  8  9  1  0  0  0  0
  8 13  1  0  0  0  0
 10  8  2  0  0  0  0
 11  9  2  0  0  0  0
 12  7  2  0  0  0  0
 12 10  1  0  0  0  0
 13 14  1  0  0  0  0
 13 16  1  0  0  0  0
 15 13  1  0  0  0  0
 17 19  1  0  0  0  0
 18 17  2  0  0  0  0
 19 20  2  0  0  0  0
 20 22  1  0  0  0  0
 21 19  1  0  0  0  0
 21 23  1  0  0  0  0
 23 22  2  0  0  0  0
 24 25  1  0  0  0  0
 24  5  1  0  0  0  0
 26 24  2  0  0  0  0
 27 25  2  0  0  0  0
 28 29  2  0  0  0  0
 28 26  1  0  0  0  0
 29 27  1  0  0  0  0
 30  3  1  0  0  0  0
 31 30  1  0  0  0  0
 32 31  1  0  0  0  0
 33 32  2  0  0  0  0
 34 32  1  0  0  0  0
 35 33  1  0  0  0  0
 36 34  2  0  0  0  0
 37 35  2  0  0  0  0
 37 36  1  0  0  0  0
 38 36  1  0  0  0  0
M  END
>  <MODEL>
1

>  <REMARK>
 VINA RESULT:    -7.492      0.000      0.000
 INTER + INTRA:         -14.403
 INTER:                 -11.872
 INTRA:                  -2.531
 UNBOUND:                -2.531
 SMILES CC(C)(C)c1ccc(N(C(=O)c2ccco2)[C@H](C(=O)NCCc2cccc(F)c2)c2cccnc2)cc1
 SMILES IDX 18 1 19 2 20 3 17 5 9 6 8 7 5 8 6 9 37 10 7 11 36 12 2 13
 SMILES IDX 1 14 3 15 4 16 10 17 11 18 12 19 13 20 16 21 14 22 15 23
 SMILES IDX 30 24 31 25 35 26 32 27 34 28 33 29 21 30 22 31 23 32 24 33
 SMILES IDX 29 34 25 35 27 36 26 37 28 38
 H PARENT 20 4

>  <TORSDO>
F 10

$$$$
MAT-POS-f7918075-2
 OpenBabel07072620443D

 24 27  0  0  1  0  0  0  0  0999 V2000
  -21.5450   -4.0050  -28.9610 C   0  0  1  0  0  3  0  0  0  0  0  0
  -20.5120   -4.9670  -29.5580 C   0  0  0  0  0  2  0  0  0  0  0  0
  -20.9870   -5.4130  -30.8570 O   0  0  0  0  0  0  0  0  0  0  0  0
  -21.8540   -4.4270  -31.2460 C   0  0  0  0  0  0  0  0  0  0  0  0
  -22.3720   -4.3020  -32.5190 C   0  0  0  0  0  3  0  0  0  0  0  0
  -23.2770   -3.2640  -32.7550 C   0  0  0  0  0  3  0  0  0  0  0  0
  -23.6440   -2.3920  -31.7150 C   0  0  0  0  0  0  0  0  0  0  0  0
  -24.7660   -1.1250  -32.0310 Cl  0  0  0  0  0  0  0  0  0  0  0  0
  -23.1210   -2.5440  -30.4290 C   0  0  0  0  0  3  0  0  0  0  0  0
  -22.2210   -3.5740  -30.2140 C   0  0  0  0  0  0  0  0  0  0  0  0
  -22.4620   -4.7050  -27.9640 C   0  0  0  0  0  0  0  0  0  0  0  0
  -22.1500   -5.8090  -27.5240 O   0  0  0  0  0  0  0  0  0  0  0  0
  -23.6160   -4.0090  -27.6480 N   0  0  0  0  0  0  0  0  0  0  0  0
  -23.7230   -3.1060  -28.0890 H   0  0  0  0  0  0  0  0  0  0  0  0
  -24.6560   -4.3990  -26.7630 C   0  0  0  0  0  0  0  0  0  0  0  0
  -25.7920   -5.0870  -27.1900 C   0  0  0  0  0  3  0  0  0  0  0  0
  -24.5550   -4.0830  -25.3730 C   0  0  0  0  0  0  0  0  0  0  0  0
  -26.8070   -5.4770  -26.3820 N   0  0  0  0  0  0  0  0  0  0  0  0
  -23.4750   -3.3900  -24.7620 C   0  0  0  0  0  3  0  0  0  0  0  0
  -25.6090   -4.4870  -24.5190 C   0  0  0  0  0  0  0  0  0  0  0  0
  -26.6890   -5.1690  -25.0770 C   0  0  0  0  0  3  0  0  0  0  0  0
  -23.4480   -3.1180  -23.3900 C   0  0  0  0  0  3  0  0  0  0  0  0
  -25.5720   -4.2100  -23.1400 C   0  0  0  0  0  3  0  0  0  0  0  0
  -24.4960   -3.5270  -22.5790 C   0  0  0  0  0  3  0  0  0  0  0  0
  1 11  1  1  0  0  0
  2  1  1  0  0  0  0
  3  2  1  0  0  0  0
  4  3  1  0  0  0  0
  4 10  1  0  0  0  0
  5  4  2  0  0  0  0
  6  5  1  0  0  0  0
  6  7  2  0  0  0  0
  7  9  1  0  0  0  0
  8  7  1  0  0  0  0
  9 10  2  0  0  0  0
 10  1  1  0  0  0  0
 11 13  1  0  0  0  0
 11 12  2  0  0  0  0
 13 15  1  0  0  0  0
 14 13  1  0  0  0  0
 15 17  1  0  0  0  0
 16 15  2  0  0  0  0
 16 18  1  0  0  0  0
 17 19  2  0  0  0  0
 17 20  1  0  0  0  0
 18 21  2  0  0  0  0
 19 22  1  0  0  0  0
 20 23  2  0  0  0  0
 21 20  1  0  0  0  0
 22 24  2  0  0  0  0
 23 24  1  0  0  0  0
M  END
>  <MODEL>
1

>  <REMARK>
 VINA RESULT:    -7.456      0.000      0.000
 INTER + INTRA:          -8.729
 INTER:                  -8.328
 INTRA:                  -0.401
 UNBOUND:                -0.401
 SMILES O=C(Nc1cncc2ccccc12)C1COc2ccc(Cl)cc21
 SMILES IDX 14 1 15 2 16 3 17 4 18 5 19 6 20 7 21 8 22 9 23 10 2 11 1 12
 SMILES IDX 3 13 4 15 5 16 13 17 6 18 12 19 8 20 7 21 11 22 9 23 10 24
 H PARENT 3 14

>  <TORSDO>
F 2

$$$$
MAT-POS-f9802937-8
 OpenBabel07072620443D

 27 30  0  0  1  0  0  0  0  0999 V2000
  -19.4760   -6.6300  -34.6290 C   0  0  2  0  0  3  0  0  0  0  0  0
  -20.0650   -6.5540  -36.0450 C   0  0  0  0  0  2  0  0  0  0  0  0
  -20.0460   -7.9190  -36.7040 C   0  0  0  0  0  2  0  0  0  0  0  0
  -20.8610   -8.8400  -35.9180 N   0  0  0  0  0  0  0  0  0  0  0  0
  -20.4590   -8.9760  -34.5800 C   0  0  0  0  0  0  0  0  0  0  0  0
  -20.8320  -10.1210  -33.8650 C   0  0  0  0  0  3  0  0  0  0  0  0
  -20.4840  -10.2740  -32.5190 C   0  0  0  0  0  0  0  0  0  0  0  0
  -20.9650  -11.7330  -31.7270 Cl  0  0  0  0  0  0  0  0  0  0  0  0
  -19.7740   -9.2660  -31.8660 C   0  0  0  0  0  0  0  0  0  0  0  0
  -19.2970   -9.3890  -30.2110 Cl  0  0  0  0  0  0  0  0  0  0  0  0
  -19.4390   -8.0990  -32.5570 C   0  0  0  0  0  3  0  0  0  0  0  0
  -19.8090   -7.9290  -33.9050 C   0  0  0  0  0  0  0  0  0  0  0  0
  -20.9740   -9.7440  -36.3760 H   0  0  0  0  0  0  0  0  0  0  0  0
  -19.9270   -5.3920  -33.8460 C   0  0  0  0  0  0  0  0  0  0  0  0
  -19.2030   -4.4030  -33.7850 O   0  0  0  0  0  0  0  0  0  0  0  0
  -21.1820   -5.5200  -33.2780 N   0  0  0  0  0  0  0  0  0  0  0  0
  -21.6290   -6.4170  -33.4060 H   0  0  0  0  0  0  0  0  0  0  0  0
  -21.8920   -4.5630  -32.5060 C   0  0  0  0  0  0  0  0  0  0  0  0
  -22.8750   -3.7360  -33.0500 C   0  0  0  0  0  3  0  0  0  0  0  0
  -21.6070   -4.4270  -31.1130 C   0  0  0  0  0  0  0  0  0  0  0  0
  -23.5800   -2.8130  -32.3540 N   0  0  0  0  0  0  0  0  0  0  0  0
  -20.6400   -5.1800  -30.3930 C   0  0  0  0  0  3  0  0  0  0  0  0
  -22.3380   -3.4650  -30.3730 C   0  0  0  0  0  0  0  0  0  0  0  0
  -23.2940   -2.7030  -31.0420 C   0  0  0  0  0  3  0  0  0  0  0  0
  -20.4170   -4.9870  -29.0250 C   0  0  0  0  0  3  0  0  0  0  0  0
  -22.1060   -3.2790  -28.9980 C   0  0  0  0  0  3  0  0  0  0  0  0
  -21.1500   -4.0370  -28.3280 C   0  0  0  0  0  3  0  0  0  0  0  0
  1 12  1  0  0  0  0
  1 14  1  1  0  0  0
  2  1  1  0  0  0  0
  3  2  1  0  0  0  0
  3  4  1  0  0  0  0
  4  5  1  0  0  0  0
  5 12  2  0  0  0  0
  5  6  1  0  0  0  0
  6  7  2  0  0  0  0
  7  9  1  0  0  0  0
  7  8  1  0  0  0  0
  9 10  1  0  0  0  0
 11  9  2  0  0  0  0
 12 11  1  0  0  0  0
 13  4  1  0  0  0  0
 14 15  2  0  0  0  0
 14 16  1  0  0  0  0
 16 18  1  0  0  0  0
 17 16  1  0  0  0  0
 18 20  1  0  0  0  0
 19 18  2  0  0  0  0
 19 21  1  0  0  0  0
 20 22  2  0  0  0  0
 20 23  1  0  0  0  0
 21 24  2  0  0  0  0
 22 25  1  0  0  0  0
 23 26  2  0  0  0  0
 24 23  1  0  0  0  0
 25 27  2  0  0  0  0
 26 27  1  0  0  0  0
M  END
>  <MODEL>
1

>  <REMARK>
 VINA RESULT:    -7.507      0.000      0.000
 INTER + INTRA:          -9.120
 INTER:                  -8.385
 INTRA:                  -0.735
 UNBOUND:                -0.735
 SMILES O=C(Nc1cncc2ccccc12)[C@@H]1CCNc2cc(Cl)c(Cl)cc21
 SMILES IDX 14 1 15 2 16 3 17 4 18 5 19 6 20 7 21 8 22 9 23 10 24 11
 SMILES IDX 25 12 2 14 1 15 3 16 4 18 5 19 13 20 6 21 12 22 8 23 7 24
 SMILES IDX 11 25 9 26 10 27
 H PARENT 17 13 3 17

>  <TORSDO>
F 2

$$$$
MIK-ENA-5d9157e9-5
 OpenBabel07072620443D

 29 32  0  0  1  0  0  0  0  0999 V2000
  -23.3020   -3.5160  -29.0730 C   0  0  0  0  0  1  0  0  0  0  0  0
  -22.8170   -4.6410  -28.1310 C   0  0  2  0  0  0  0  0  0  0  0  0
  -22.8210   -5.9820  -28.9210 C   0  0  0  0  0  2  0  0  0  0  0  0
  -24.1830   -6.3710  -29.2950 N   0  0  0  0  0  0  0  0  0  0  0  0
  -25.1560   -6.8580  -28.0250 S   0  0  0  0  0  0  0  0  0  0  0  0
  -26.5170   -6.6720  -28.4730 O   0  0  0  0  0  0  0  0  0  0  0  0
  -24.6580   -8.1140  -27.5190 O   0  0  0  0  0  0  0  0  0  0  0  0
  -24.8190   -5.6250  -26.7880 C   0  0  0  0  0  0  0  0  0  0  0  0
  -25.6830   -5.6220  -25.6800 C   0  0  0  0  0  3  0  0  0  0  0  0
  -25.5150   -4.6840  -24.6650 C   0  0  0  0  0  3  0  0  0  0  0  0
  -24.4940   -3.7480  -24.7670 C   0  0  0  0  0  0  0  0  0  0  0  0
  -24.2860   -2.5730  -23.5270 Cl  0  0  0  0  0  0  0  0  0  0  0  0
  -23.6370   -3.7430  -25.8740 C   0  0  0  0  0  3  0  0  0  0  0  0
  -23.7640   -4.6940  -26.9110 C   0  0  0  0  0  0  0  0  0  0  0  0
  -24.6810   -5.8630  -30.0230 H   0  0  0  0  0  0  0  0  0  0  0  0
  -21.3270   -4.4480  -27.6960 C   0  0  0  0  0  0  0  0  0  0  0  0
  -20.5870   -3.6850  -28.3130 O   0  0  0  0  0  0  0  0  0  0  0  0
  -20.9100   -5.1970  -26.6060 N   0  0  0  0  0  0  0  0  0  0  0  0
  -21.6140   -5.3770  -25.9010 H   0  0  0  0  0  0  0  0  0  0  0  0
  -19.5750   -5.3320  -26.1410 C   0  0  0  0  0  0  0  0  0  0  0  0
  -18.9260   -4.1480  -25.7680 C   0  0  0  0  0  3  0  0  0  0  0  0
  -18.8820   -6.5420  -25.9410 C   0  0  0  0  0  0  0  0  0  0  0  0
  -17.6690   -4.0620  -25.2880 N   0  0  0  0  0  0  0  0  0  0  0  0
  -17.5550   -6.4760  -25.4530 C   0  0  0  0  0  0  0  0  0  0  0  0
  -19.4990   -7.9020  -26.1830 C   0  0  0  0  0  2  0  0  0  0  0  0
  -17.0110   -5.2280  -25.1520 C   0  0  0  0  0  3  0  0  0  0  0  0
  -16.7270   -7.7010  -25.1490 C   0  0  0  0  0  2  0  0  0  0  0  0
  -18.8220   -9.0320  -25.4070 C   0  0  0  0  0  2  0  0  0  0  0  0
  -17.3260   -9.0020  -25.6710 C   0  0  0  0  0  2  0  0  0  0  0  0
  2  1  1  6  0  0  0
  2 16  1  0  0  0  0
  2 14  1  0  0  0  0
  3  2  1  0  0  0  0
  4  3  1  0  0  0  0
  4  5  1  0  0  0  0
  5  7  2  0  0  0  0
  5  8  1  0  0  0  0
  6  5  2  0  0  0  0
  8  9  1  0  0  0  0
  9 10  2  0  0  0  0
 11 10  1  0  0  0  0
 11 12  1  0  0  0  0
 13 11  2  0  0  0  0
 14  8  2  0  0  0  0
 14 13  1  0  0  0  0
 15  4  1  0  0  0  0
 16 18  1  0  0  0  0
 17 16  2  0  0  0  0
 18 20  1  0  0  0  0
 18 19  1  0  0  0  0
 20 22  2  0  0  0  0
 20 21  1  0  0  0  0
 21 23  2  0  0  0  0
 22 24  1  0  0  0  0
 23 26  1  0  0  0  0
 24 26  2  0  0  0  0
 24 27  1  0  0  0  0
 25 22  1  0  0  0  0
 25 28  1  0  0  0  0
 29 28  1  0  0  0  0
 29 27  1  0  0  0  0
M  END
>  <MODEL>
1

>  <REMARK>
 VINA RESULT:    -7.867      0.000      0.000
 INTER + INTRA:          -9.040
 INTER:                  -8.787
 INTRA:                  -0.253
 UNBOUND:                -0.253
 SMILES C[C@]1(C(=O)Nc2cncc3c2CCCC3)CNS(=O)(=O)c2ccc(Cl)cc21
 SMILES IDX 1 1 2 2 16 3 17 4 18 5 19 6 20 7 21 8 22 9 23 10 24 11 25 12
 SMILES IDX 26 13 27 14 3 16 4 17 5 18 6 20 7 21 11 22 8 23 10 24 12 25
 SMILES IDX 9 26 15 27 13 28 14 29
 H PARENT 17 15 5 19

>  <TORSDO>
F 2

$$$$
MIK-ENA-5d9157e9-6
 OpenBabel07072620443D

 29 32  0  0  1  0  0  0  0  0999 V2000
  -22.3020   -6.6070  -29.0860 C   0  0  0  0  0  1  0  0  0  0  0  0
  -20.9730   -5.8130  -29.0300 C   0  0  1  0  0  0  0  0  0  0  0  0
  -21.2600   -4.4920  -28.2770 C   0  0  0  0  0  2  0  0  0  0  0  0
  -20.0270   -3.8300  -27.8480 N   0  0  0  0  0  0  0  0  0  0  0  0
  -19.2030   -4.6260  -26.6220 S   0  0  0  0  0  0  0  0  0  0  0  0
  -17.8780   -4.0550  -26.5770 O   0  0  0  0  0  0  0  0  0  0  0  0
  -20.0700   -4.7020  -25.4700 O   0  0  0  0  0  0  0  0  0  0  0  0
  -19.0840   -6.2670  -27.2860 C   0  0  0  0  0  0  0  0  0  0  0  0
  -18.1030   -7.0980  -26.7230 C   0  0  0  0  0  3  0  0  0  0  0  0
  -17.9170   -8.3890  -27.2130 C   0  0  0  0  0  3  0  0  0  0  0  0
  -18.7010   -8.8380  -28.2700 C   0  0  0  0  0  0  0  0  0  0  0  0
  -18.4660  -10.4240  -28.8950 Cl  0  0  0  0  0  0  0  0  0  0  0  0
  -19.6760   -8.0090  -28.8360 C   0  0  0  0  0  3  0  0  0  0  0  0
  -19.9030   -6.7010  -28.3490 C   0  0  0  0  0  0  0  0  0  0  0  0
  -19.3880   -3.4760  -28.5650 H   0  0  0  0  0  0  0  0  0  0  0  0
  -20.4900   -5.4100  -30.4590 C   0  0  0  0  0  0  0  0  0  0  0  0
  -19.7260   -4.4590  -30.6100 O   0  0  0  0  0  0  0  0  0  0  0  0
  -21.0520   -6.1280  -31.5040 N   0  0  0  0  0  0  0  0  0  0  0  0
  -21.7440   -6.8240  -31.2730 H   0  0  0  0  0  0  0  0  0  0  0  0
  -20.7970   -5.9690  -32.8920 C   0  0  0  0  0  0  0  0  0  0  0  0
  -20.9680   -4.7610  -33.5740 C   0  0  0  0  0  3  0  0  0  0  0  0
  -20.3460   -7.0780  -33.6460 C   0  0  0  0  0  0  0  0  0  0  0  0
  -20.7510   -4.5850  -34.9000 N   0  0  0  0  0  0  0  0  0  0  0  0
  -20.1520   -6.9220  -35.0360 C   0  0  0  0  0  0  0  0  0  0  0  0
  -20.1230   -8.4360  -33.0110 C   0  0  0  0  0  2  0  0  0  0  0  0
  -20.3540   -5.6650  -35.5960 C   0  0  0  0  0  3  0  0  0  0  0  0
  -19.6890   -8.0460  -35.9270 C   0  0  0  0  0  2  0  0  0  0  0  0
  -19.3700   -9.4370  -33.8870 C   0  0  0  0  0  2  0  0  0  0  0  0
  -19.9100   -9.4210  -35.3070 C   0  0  0  0  0  2  0  0  0  0  0  0
  2  1  1  6  0  0  0
  2 14  1  0  0  0  0
  2  3  1  0  0  0  0
  3  4  1  0  0  0  0
  4  5  1  0  0  0  0
  5  6  2  0  0  0  0
  5  7  2  0  0  0  0
  8  9  1  0  0  0  0
  8  5  1  0  0  0  0
 10  9  2  0  0  0  0
 11 10  1  0  0  0  0
 12 11  1  0  0  0  0
 13 14  1  0  0  0  0
 13 11  2  0  0  0  0
 14  8  2  0  0  0  0
 15  4  1  0  0  0  0
 16  2  1  0  0  0  0
 17 16  2  0  0  0  0
 18 19  1  0  0  0  0
 18 16  1  0  0  0  0
 20 18  1  0  0  0  0
 21 20  1  0  0  0  0
 22 25  1  0  0  0  0
 22 20  2  0  0  0  0
 23 21  2  0  0  0  0
 24 22  1  0  0  0  0
 26 24  2  0  0  0  0
 26 23  1  0  0  0  0
 27 29  1  0  0  0  0
 27 24  1  0  0  0  0
 28 25  1  0  0  0  0
 29 28  1  0  0  0  0
M  END
>  <MODEL>
1

>  <REMARK>
 VINA RESULT:    -7.874      0.000      0.000
 INTER + INTRA:          -9.702
 INTER:                  -8.794
 INTRA:                  -0.907
 UNBOUND:                -0.907
 SMILES C[C@@]1(C(=O)Nc2cncc3c2CCCC3)CNS(=O)(=O)c2ccc(Cl)cc21
 SMILES IDX 1 1 2 2 16 3 17 4 18 5 19 6 20 7 21 8 22 9 23 10 24 11 25 12
 SMILES IDX 26 13 27 14 3 16 4 17 5 18 6 20 7 21 11 22 8 23 10 24 12 25
 SMILES IDX 9 26 15 27 13 28 14 29
 H PARENT 17 15 5 19

>  <TORSDO>
F 2

$$$$
MIK-UNK-1619f2e2-1
 OpenBabel07072620443D

 32 36  0  0  1  0  0  0  0  0999 V2000
  -25.3380   -2.6200  -24.4230 C   0  0  0  0  0  2  0  0  0  0  0  0
  -24.5190   -3.2450  -23.2890 C   0  0  0  0  0  0  0  0  0  0  0  0
  -25.2670   -4.0370  -22.4410 N   0  0  0  0  0  0  0  0  0  0  0  0
  -23.3220   -3.0190  -23.1360 O   0  0  0  0  0  0  0  0  0  0  0  0
  -24.6470   -4.8120  -21.4010 C   0  0  0  0  0  1  0  0  0  0  0  0
  -26.1580   -4.3400  -22.8270 H   0  0  0  0  0  0  0  0  0  0  0  0
  -25.3630   -3.5090  -25.6170 N   0  0  0  0  0  0  0  0  0  0  0  0
  -26.6460   -4.2480  -25.6650 C   0  0  0  0  0  2  0  0  0  0  0  0
  -24.2640   -4.4930  -25.5340 C   0  0  0  0  0  2  0  0  0  0  0  0
  -26.6800   -5.3250  -26.7330 C   0  0  0  0  0  0  0  0  0  0  0  0
  -24.1470   -5.2860  -26.8600 C   0  0  1  0  0  0  0  0  0  0  0  0
  -27.9230   -5.8440  -27.1330 C   0  0  0  0  0  3  0  0  0  0  0  0
  -25.4930   -5.8680  -27.2720 C   0  0  0  0  0  0  0  0  0  0  0  0
  -23.5670   -4.4210  -27.9990 C   0  0  0  0  0  2  0  0  0  0  0  0
  -23.0480   -6.3310  -26.6450 C   0  0  0  0  0  0  0  0  0  0  0  0
  -27.9970   -6.8730  -28.0710 C   0  0  0  0  0  3  0  0  0  0  0  0
  -25.5840   -6.9030  -28.2200 C   0  0  0  0  0  3  0  0  0  0  0  0
  -22.0690   -4.5640  -27.8260 C   0  0  0  0  0  2  0  0  0  0  0  0
  -21.9110   -5.9200  -27.3640 N   0  0  0  0  0  0  0  0  0  0  0  0
  -23.1560   -7.2980  -25.9040 O   0  0  0  0  0  0  0  0  0  0  0  0
  -26.8280   -7.3980  -28.6100 C   0  0  0  0  0  0  0  0  0  0  0  0
  -26.9160   -8.6640  -29.7730 Cl  0  0  0  0  0  0  0  0  0  0  0  0
  -20.6440   -6.5550  -27.2800 C   0  0  0  0  0  0  0  0  0  0  0  0
  -20.3550   -7.6540  -28.0970 C   0  0  0  0  0  3  0  0  0  0  0  0
  -19.6290   -6.1530  -26.3990 C   0  0  0  0  0  0  0  0  0  0  0  0
  -19.1700   -8.3140  -28.1460 N   0  0  0  0  0  0  0  0  0  0  0  0
  -18.3700   -6.7920  -26.4630 C   0  0  0  0  0  0  0  0  0  0  0  0
  -19.7980   -5.1960  -25.2400 C   0  0  0  0  0  2  0  0  0  0  0  0
  -18.1980   -7.8540  -27.3380 C   0  0  0  0  0  3  0  0  0  0  0  0
  -17.2720   -6.3470  -25.5350 C   0  0  0  0  0  2  0  0  0  0  0  0
  -18.6380   -4.2020  -25.1550 C   0  0  0  0  0  2  0  0  0  0  0  0
  -17.2580   -4.8220  -25.4170 C   0  0  0  0  0  2  0  0  0  0  0  0
  1  2  1  0  0  0  0
  2  4  2  0  0  0  0
  2  3  1  0  0  0  0
  3  5  1  0  0  0  0
  6  3  1  0  0  0  0
  7  9  1  0  0  0  0
  7  1  1  0  0  0  0
  8  7  1  0  0  0  0
 10  8  1  0  0  0  0
 11 14  1  6  0  0  0
 11 15  1  0  0  0  0
 11  9  1  0  0  0  0
 12 10  1  0  0  0  0
 13 11  1  0  0  0  0
 13 10  2  0  0  0  0
 14 18  1  0  0  0  0
 15 20  2  0  0  0  0
 16 12  2  0  0  0  0
 17 13  1  0  0  0  0
 18 19  1  0  0  0  0
 19 23  1  0  0  0  0
 19 15  1  0  0  0  0
 21 17  2  0  0  0  0
 21 16  1  0  0  0  0
 22 21  1  0  0  0  0
 23 25  1  0  0  0  0
 24 23  2  0  0  0  0
 25 28  1  0  0  0  0
 26 24  1  0  0  0  0
 26 29  2  0  0  0  0
 27 25  2  0  0  0  0
 27 30  1  0  0  0  0
 28 31  1  0  0  0  0
 29 27  1  0  0  0  0
 30 32  1  0  0  0  0
 32 31  1  0  0  0  0
M  END
>  <MODEL>
1

>  <REMARK>
 VINA RESULT:    -7.941      0.000      0.000
 INTER + INTRA:          -9.733
 INTER:                  -9.334
 INTRA:                  -0.399
 UNBOUND:                -0.399
 SMILES CNC(=O)CN1Cc2ccc(Cl)cc2[C@@]2(CCN(c3cncc4c3CCCC4)C2=O)C1
 SMILES IDX 5 1 3 2 2 3 4 4 1 5 6 7 7 8 31 9 8 10 15 11 9 12 14 13 16 14
 SMILES IDX 29 15 10 16 13 17 17 18 18 19 30 20 11 21 12 22 19 23 20 24
 SMILES IDX 24 25 21 26 23 27 25 28 22 29 28 30 26 31 27 32
 H PARENT 2 6

>  <TORSDO>
F 3

$$$$
PET-UNK-ac320b15-10
 OpenBabel07072620443D

 38 42  0  0  1  0  0  0  0  0999 V2000
  -23.1200   -4.8780  -25.2770 N   0  0  0  0  0  0  0  0  0  0  0  0
  -23.9210   -4.0350  -24.5300 C   0  0  0  0  0  0  0  0  0  0  0  0
  -23.8010   -2.8140  -24.5790 O   0  0  0  0  0  0  0  0  0  0  0  0
  -23.4950   -5.7940  -25.4970 H   0  0  0  0  0  0  0  0  0  0  0  0
  -22.2060   -4.3370  -26.2710 C   0  0  2  0  0  3  0  0  0  0  0  0
  -22.9010   -4.3760  -27.6610 C   0  0  0  0  0  0  0  0  0  0  0  0
  -23.8830   -5.0910  -27.8600 O   0  0  0  0  0  0  0  0  0  0  0  0
  -22.2680   -3.5820  -28.6090 N   0  0  0  0  0  0  0  0  0  0  0  0
  -21.4030   -3.1510  -28.3170 H   0  0  0  0  0  0  0  0  0  0  0  0
  -22.6750   -3.3460  -29.9490 C   0  0  0  0  0  0  0  0  0  0  0  0
  -23.6300   -2.3820  -30.2860 C   0  0  0  0  0  3  0  0  0  0  0  0
  -22.0790   -4.0890  -31.0110 C   0  0  0  0  0  0  0  0  0  0  0  0
  -24.0400   -2.1070  -31.5450 N   0  0  0  0  0  0  0  0  0  0  0  0
  -21.0910   -5.0990  -30.8580 C   0  0  0  0  0  3  0  0  0  0  0  0
  -22.5020   -3.8120  -32.3340 C   0  0  0  0  0  0  0  0  0  0  0  0
  -23.4680   -2.8260  -32.5300 C   0  0  0  0  0  3  0  0  0  0  0  0
  -20.5660   -5.7950  -31.9530 C   0  0  0  0  0  3  0  0  0  0  0  0
  -21.9640   -4.5150  -33.4280 C   0  0  0  0  0  3  0  0  0  0  0  0
  -21.0080   -5.5090  -33.2360 C   0  0  0  0  0  3  0  0  0  0  0  0
  -20.9040   -5.1190  -26.2310 C   0  0  0  0  0  0  0  0  0  0  0  0
  -20.8950   -6.4500  -26.6840 C   0  0  0  0  0  3  0  0  0  0  0  0
  -19.6920   -4.5380  -25.8210 C   0  0  0  0  0  3  0  0  0  0  0  0
  -19.7120   -7.1930  -26.6990 C   0  0  0  0  0  3  0  0  0  0  0  0
  -18.5140   -5.2870  -25.8390 C   0  0  0  0  0  0  0  0  0  0  0  0
  -18.5200   -6.6110  -26.2730 C   0  0  0  0  0  3  0  0  0  0  0  0
  -17.0370   -4.5630  -25.3320 Cl  0  0  0  0  0  0  0  0  0  0  0  0
  -24.9910   -4.7660  -23.6920 C   0  0  1  0  0  3  0  0  0  0  0  0
  -26.1960   -3.8920  -23.3780 C   0  0  0  0  0  2  0  0  0  0  0  0
  -25.5060   -5.9590  -24.2920 O   0  0  0  0  0  0  0  0  0  0  0  0
  -27.2850   -4.9120  -23.1490 C   0  0  0  0  0  2  0  0  0  0  0  0
  -26.9370   -5.9770  -24.1760 C   0  0  1  0  0  3  0  0  0  0  0  0
  -27.6710   -5.6970  -25.5100 C   0  0  0  0  0  0  0  0  0  0  0  0
  -28.4140   -4.7230  -25.6510 O   0  0  0  0  0  0  0  0  0  0  0  0
  -27.5000   -6.6150  -26.5290 N   0  0  0  0  0  0  0  0  0  0  0  0
  -26.6300   -7.7830  -26.5440 C   0  0  0  0  0  2  0  0  0  0  0  0
  -28.2030   -6.4660  -27.7910 C   0  0  0  0  0  2  0  0  0  0  0  0
  -26.6400   -8.2500  -27.9960 C   0  0  0  0  0  2  0  0  0  0  0  0
  -28.0130   -7.8070  -28.4860 C   0  0  0  0  0  2  0  0  0  0  0  0
  1  2  1  0  0  0  0
  3  2  2  0  0  0  0
  4  1  1  0  0  0  0
  5  6  1  6  0  0  0
  5 20  1  0  0  0  0
  5  1  1  0  0  0  0
  7  6  2  0  0  0  0
  8  9  1  0  0  0  0
  8  6  1  0  0  0  0
 10  8  1  0  0  0  0
 11 10  1  0  0  0  0
 12 14  1  0  0  0  0
 12 10  2  0  0  0  0
 13 11  2  0  0  0  0
 15 12  1  0  0  0  0
 16 15  2  0  0  0  0
 16 13  1  0  0  0  0
 17 14  2  0  0  0  0
 18 19  2  0  0  0  0
 18 15  1  0  0  0  0
 19 17  1  0  0  0  0
 20 22  1  0  0  0  0
 21 20  2  0  0  0  0
 23 21  1  0  0  0  0
 23 25  2  0  0  0  0
 24 22  2  0  0  0  0
 24 26  1  0  0  0  0
 25 24  1  0  0  0  0
 27  2  1  6  0  0  0
 27 28  1  0  0  0  0
 28 30  1  0  0  0  0
 29 31  1  0  0  0  0
 29 27  1  0  0  0  0
 31 32  1  6  0  0  0
 31 30  1  0  0  0  0
 33 32  2  0  0  0  0
 34 32  1  0  0  0  0
 35 34  1  0  0  0  0
 36 34  1  0  0  0  0
 37 35  1  0  0  0  0
 38 37  1  0  0  0  0
 38 36  1  0  0  0  0
M  END
>  <MODEL>
1

>  <REMARK>
 VINA RESULT:    -8.735      0.000      0.000
 INTER + INTRA:         -13.326
 INTER:                 -11.800
 INTRA:                  -1.526
 UNBOUND:                -1.526
 SMILES O=C(Nc1cncc2ccccc12)[C@@H](NC(=O)[C@H]1CC[C@@H](C(=O)N2CCCC2)O1)c1cccc(Cl)c1
 SMILES IDX 15 1 16 2 17 3 14 5 2 6 1 7 3 8 4 10 5 11 13 12 6 13 12 14
 SMILES IDX 8 15 7 16 11 17 9 18 10 19 30 20 31 21 36 22 32 23 34 24
 SMILES IDX 33 25 35 26 18 27 19 28 29 29 20 30 21 31 22 32 23 33 24 34
 SMILES IDX 25 35 28 36 26 37 27 38
 H PARENT 15 4 3 9

>  <TORSDO>
F 6

$$$$
PET-UNK-b38839dc-1
 OpenBabel07072620443D

 25 27  0  0  0  0  0  0  0  0999 V2000
  -21.6360   -4.9880  -33.6760 N   0  0  0  0  0  0  0  0  0  0  0  0
  -20.3920   -4.8740  -34.2780 C   0  0  0  0  0  0  0  0  0  0  0  0
  -19.5270   -4.0500  -34.0060 O   0  0  0  0  0  0  0  0  0  0  0  0
  -22.2340   -5.7080  -34.0460 H   0  0  0  0  0  0  0  0  0  0  0  0
  -22.1470   -4.2340  -32.5820 C   0  0  0  0  0  0  0  0  0  0  0  0
  -20.0940   -5.4700  -29.6090 C   0  0  0  0  0  0  0  0  0  0  0  0
  -20.5830   -5.3500  -30.9180 C   0  0  0  0  0  3  0  0  0  0  0  0
  -20.6340   -4.6570  -28.6160 C   0  0  0  0  0  0  0  0  0  0  0  0
  -21.6010   -4.4140  -31.2670 C   0  0  0  0  0  0  0  0  0  0  0  0
  -21.6320   -3.7370  -28.9080 C   0  0  0  0  0  3  0  0  0  0  0  0
  -22.1180   -3.6120  -30.2180 C   0  0  0  0  0  0  0  0  0  0  0  0
  -23.1640   -3.2890  -32.7400 C   0  0  0  0  0  3  0  0  0  0  0  0
  -23.1330   -2.7020  -30.5160 C   0  0  0  0  0  3  0  0  0  0  0  0
  -23.6660   -2.5240  -31.7430 N   0  0  0  0  0  0  0  0  0  0  0  0
  -20.1870   -4.7460  -27.3470 F   0  0  0  0  0  0  0  0  0  0  0  0
  -19.1260   -6.3490  -29.1950 O   0  0  0  0  0  0  0  0  0  0  0  0
  -19.5070   -7.7100  -29.0450 C   0  0  0  0  0  1  0  0  0  0  0  0
  -20.1730   -5.9030  -35.3780 C   0  0  0  0  0  2  0  0  0  0  0  0
  -19.9000   -7.2830  -34.8270 C   0  0  0  0  0  0  0  0  0  0  0  0
  -20.5170   -8.4020  -35.4010 C   0  0  0  0  0  3  0  0  0  0  0  0
  -19.0190   -7.4710  -33.7550 C   0  0  0  0  0  3  0  0  0  0  0  0
  -20.2630   -9.6860  -34.9120 C   0  0  0  0  0  3  0  0  0  0  0  0
  -18.7660   -8.7580  -33.2720 C   0  0  0  0  0  0  0  0  0  0  0  0
  -19.3860   -9.8640  -33.8440 C   0  0  0  0  0  3  0  0  0  0  0  0
  -17.6740   -8.9710  -31.9520 Cl  0  0  0  0  0  0  0  0  0  0  0  0
  1  5  1  0  0  0  0
  2  3  2  0  0  0  0
  2  1  1  0  0  0  0
  4  1  1  0  0  0  0
  5  9  1  0  0  0  0
  6 16  1  0  0  0  0
  6  8  1  0  0  0  0
  7  6  2  0  0  0  0
  8 15  1  0  0  0  0
  9  7  1  0  0  0  0
  9 11  2  0  0  0  0
 10  8  2  0  0  0  0
 11 10  1  0  0  0  0
 12  5  2  0  0  0  0
 12 14  1  0  0  0  0
 13 11  1  0  0  0  0
 14 13  2  0  0  0  0
 16 17  1  0  0  0  0
 18 19  1  0  0  0  0
 18  2  1  0  0  0  0
 19 21  1  0  0  0  0
 20 22  1  0  0  0  0
 20 19  2  0  0  0  0
 21 23  2  0  0  0  0
 22 24  2  0  0  0  0
 23 25  1  0  0  0  0
 24 23  1  0  0  0  0
M  END
>  <MODEL>
1

>  <REMARK>
 VINA RESULT:    -6.949      0.000      0.000
 INTER + INTRA:          -9.417
 INTER:                  -8.574
 INTRA:                  -0.843
 UNBOUND:                -0.843
 SMILES COc1cc2c(NC(=O)Cc3cccc(Cl)c3)cncc2cc1F
 SMILES IDX 7 1 8 2 9 3 6 5 3 6 4 7 23 8 5 9 22 10 21 11 18 12 20 13
 SMILES IDX 19 14 24 15 2 16 1 17 10 18 11 19 12 20 17 21 13 22 15 23
 SMILES IDX 14 24 16 25
 H PARENT 7 4

>  <TORSDO>
F 4

$$$$
RAL-THA-05e671eb-10
 OpenBabel07072620443D

 26 29  0  0  1  0  0  0  0  0999 V2000
  -21.7760   -5.4820  -29.7750 C   0  0  1  0  0  3  0  0  0  0  0  0
  -23.0830   -4.7950  -29.3730 C   0  0  0  0  0  2  0  0  0  0  0  0
  -23.1700   -3.4400  -30.0590 C   0  0  0  0  0  2  0  0  0  0  0  0
  -23.2190   -3.5760  -31.4800 O   0  0  0  0  0  0  0  0  0  0  0  0
  -22.2480   -4.3820  -32.0090 C   0  0  0  0  0  0  0  0  0  0  0  0
  -22.0350   -4.2560  -33.3810 C   0  0  0  0  0  3  0  0  0  0  0  0
  -21.0770   -5.0480  -34.0060 C   0  0  0  0  0  0  0  0  0  0  0  0
  -20.8870   -4.9090  -35.3260 F   0  0  0  0  0  0  0  0  0  0  0  0
  -20.3350   -5.9710  -33.2740 C   0  0  0  0  0  0  0  0  0  0  0  0
  -19.1530   -6.9580  -34.0430 Cl  0  0  0  0  0  0  0  0  0  0  0  0
  -20.5560   -6.1090  -31.9020 C   0  0  0  0  0  3  0  0  0  0  0  0
  -21.5230   -5.3180  -31.2580 C   0  0  0  0  0  0  0  0  0  0  0  0
  -20.6240   -4.9520  -28.9070 C   0  0  0  0  0  0  0  0  0  0  0  0
  -20.1950   -3.8090  -29.0220 O   0  0  0  0  0  0  0  0  0  0  0  0
  -20.1780   -5.8940  -27.9900 N   0  0  0  0  0  0  0  0  0  0  0  0
  -20.6310   -6.7950  -28.0170 H   0  0  0  0  0  0  0  0  0  0  0  0
  -19.1480   -5.7370  -27.0210 C   0  0  0  0  0  0  0  0  0  0  0  0
  -18.8120   -4.5000  -26.4670 C   0  0  0  0  0  3  0  0  0  0  0  0
  -18.4110   -6.8810  -26.5810 C   0  0  0  0  0  0  0  0  0  0  0  0
  -17.8430   -4.3060  -25.5420 N   0  0  0  0  0  0  0  0  0  0  0  0
  -18.6110   -8.2140  -27.0300 C   0  0  0  0  0  3  0  0  0  0  0  0
  -17.3940   -6.6880  -25.6130 C   0  0  0  0  0  0  0  0  0  0  0  0
  -17.1640   -5.3970  -25.1430 C   0  0  0  0  0  3  0  0  0  0  0  0
  -17.8470   -9.2830  -26.5490 C   0  0  0  0  0  3  0  0  0  0  0  0
  -16.6310   -7.7700  -25.1360 C   0  0  0  0  0  3  0  0  0  0  0  0
  -16.8580   -9.0610  -25.6020 C   0  0  0  0  0  3  0  0  0  0  0  0
  1  2  1  0  0  0  0
  1 13  1  1  0  0  0
  3  2  1  0  0  0  0
  4  3  1  0  0  0  0
  5  4  1  0  0  0  0
  5 12  1  0  0  0  0
  6  5  2  0  0  0  0
  7  6  1  0  0  0  0
  7  9  2  0  0  0  0
  8  7  1  0  0  0  0
  9 11  1  0  0  0  0
 10  9  1  0  0  0  0
 11 12  2  0  0  0  0
 12  1  1  0  0  0  0
 13 15  1  0  0  0  0
 14 13  2  0  0  0  0
 15 17  1  0  0  0  0
 16 15  1  0  0  0  0
 17 19  2  0  0  0  0
 17 18  1  0  0  0  0
 18 20  2  0  0  0  0
 19 22  1  0  0  0  0
 20 23  1  0  0  0  0
 21 19  1  0  0  0  0
 21 24  2  0  0  0  0
 22 23  2  0  0  0  0
 22 25  1  0  0  0  0
 24 26  1  0  0  0  0
 26 25  2  0  0  0  0
M  END
>  <MODEL>
1

>  <REMARK>
 VINA RESULT:    -8.063      0.000      0.000
 INTER + INTRA:          -9.106
 INTER:                  -9.006
 INTRA:                  -0.100
 UNBOUND:                -0.100
 SMILES O=C(Nc1cncc2ccccc12)C1CCOc2cc(F)c(Cl)cc21
 SMILES IDX 14 1 15 2 16 3 17 4 18 5 19 6 20 7 21 8 22 9 23 10 24 11
 SMILES IDX 25 12 2 13 1 14 3 15 4 17 5 18 13 19 6 20 12 21 8 22 7 23
 SMILES IDX 11 24 9 25 10 26
 H PARENT 3 16

>  <TORSDO>
F 2

$$$$
